%chk=gaussian_modred_with_custom_basis_for_all_atoms_from_api.chk
%nprocshared=64
%mem=400GB
# opt=modredundant freq b3lyp empiricaldispersion=gd3bj genecp

Job prepared from Gaussian file modred_genecp.com

0 1
Pd      -0.0000010000   -0.0000000000   -0.0000040000
C       -3.8733030000    0.0000320000   -0.0130960000
C       -2.3835590000   -0.0000590000    0.0186630000
O       -1.7087280000   -1.0771970000    0.0183300000
O       -1.7087230000    1.0771380000    0.0183250000
C        2.3835620000    0.0000710000   -0.0186000000
C        3.8733110000   -0.0000330000    0.0129990000
O        1.7087230000   -1.0771280000   -0.0182810000
O        1.7087210000    1.0772000000   -0.0182700000
H       -4.2588740000    0.9054910000    0.4698210000
H       -4.1989950000   -0.0000150000   -1.0638280000
H       -4.2591170000   -0.9052350000    0.4699710000
H        4.2590770000    0.9056340000   -0.4693510000
H        4.1991260000   -0.0009450000    1.0636910000
H        4.2588190000   -0.9050810000   -0.4707460000

B 1 2 F
A 3 4 5 F

!----------------------------------------------------------------------
! Basis Set Exchange
! Version v0.9.1
! https://www.basissetexchange.org
!----------------------------------------------------------------------
!   Basis set: def2-TZVPPD
! Description: def2-TZVPPD
!        Role: orbital
!     Version: 1  (Data from Turbomole 7.3)
!----------------------------------------------------------------------
H     0
S    3   1.00
     34.0613410              0.60251978D-02
      5.1235746              0.45021094D-01
      1.1646626              0.20189726
S    1   1.00
      0.32723041             1.0000000
S    1   1.00
      0.10307241             1.0000000
P    1   1.00
      1.40700000             1.0000000
P    1   1.00
      0.38800000             1.0000000
P    1   1.00
      0.95774129632D-01      1.0000000
D    1   1.00
      1.05700000             1.0000000
****
C     0
S    6   1.00
  13575.3496820              0.22245814352D-03
   2035.2333680              0.17232738252D-02
    463.22562359             0.89255715314D-02
    131.20019598             0.35727984502D-01
     42.853015891            0.11076259931
     15.584185766            0.24295627626
S    2   1.00
      6.2067138508           0.41440263448
      2.5764896527           0.23744968655
S    1   1.00
      0.57696339419          1.0000000
S    1   1.00
      0.22972831358          1.0000000
S    1   1.00
      0.95164440028D-01      1.0000000
S    1   1.00
      0.48475401370D-01      1.0000000
P    4   1.00
     34.697232244            0.53333657805D-02
      7.9582622826           0.35864109092D-01
      2.3780826883           0.14215873329
      0.81433208183          0.34270471845
P    1   1.00
      0.28887547253           .46445822433
P    1   1.00
      0.10056823671           .24955789874
D    1   1.00
      1.09700000             1.0000000
D    1   1.00
      0.31800000             1.0000000
D    1   1.00
      0.90985336424D-01      1.0000000
F    1   1.00
      0.76100000             1.0000000
****
O     0
S    6   1.00
  27032.3826310              0.21726302465D-03
   4052.3871392              0.16838662199D-02
    922.32722710             0.87395616265D-02
    261.24070989             0.35239968808D-01
     85.354641351            0.11153519115
     31.035035245            0.25588953961
S    2   1.00
     12.260860728            0.39768730901
      4.9987076005           0.24627849430
S    1   1.00
      1.1703108158           1.0000000
S    1   1.00
      0.46474740994          1.0000000
S    1   1.00
      0.18504536357          1.0000000
S    1   1.00
      0.70288026270D-01      1.0000000
P    4   1.00
     63.274954801            0.60685103418D-02
     14.627049379            0.41912575824D-01
      4.4501223456           0.16153841088
      1.5275799647           0.35706951311
P    1   1.00
      0.52935117943           .44794207502
P    1   1.00
      0.17478421270           .24446069663
P    1   1.00
      0.51112745706D-01      1.0000000
D    1   1.00
      2.31400000             1.0000000
D    1   1.00
      0.64500000             1.0000000
D    1   1.00
      0.14696477366          1.0000000
F    1   1.00
      1.42800000             1.0000000
****
Pd     0
S    2   1.00
     18.000000000           -0.16605388598
     14.662134308            0.34899955055
S    1   1.00
      5.6388709265           1.0000000
S    1   1.00
      1.3198953252           1.0000000
S    1   1.00
      0.57817908509          1.0000000
S    1   1.00
      0.10352166239          1.0000000
S    1   1.00
      0.37548442674D-01      1.0000000
P    4   1.00
     12.552899300            0.61728998206D-01
      7.2444496380          -0.24178626753
      1.8905941078           0.49453200915
      0.90737168760          0.50454362626
P    1   1.00
      0.40877210813          1.0000000
P    1   1.00
      0.11500000000          1.0000000
P    1   1.00
      0.37000000000D-01      1.0000000
D    4   1.00
     22.357457575            0.39559479546D-02
     10.682526382           -0.14039011601D-01
      2.4858232550           0.24219476776
      1.0735333903           0.42580283281
D    1   1.00
      0.42613842853          1.0000000
D    1   1.00
      0.15046355385          1.0000000
F    1   1.00
      2.2424600              1.0000000
F    1   1.00
      0.6357500              1.0000000
G    1   1.00
      1.3777000              1.0000000
****

PD     0
PD-ECP     3     28
f potential
  2
2     13.2700000            -31.92955431
2      6.6300000             -5.39821694
s-f potential
  4
2     12.4300000            240.22904033
2      6.1707594             35.17194347
2     13.2700000             31.92955431
2      6.6300000              5.39821694
p-f potential
  4
2     11.0800000            170.41727605
2      5.8295541             28.47213287
2     13.2700000             31.92955431
2      6.6300000              5.39821694
d-f potential
  4
2      9.5100000             69.01384488
2      4.1397811             11.75086158
2     13.2700000             31.92955431
2      6.6300000              5.39821694
