%chk=gaussian_sp_from_log_with_custom_basis.chk
%nprocshared=64
%mem=400GB
# opt=(ts,calcfc,noeigentest) freq b3lyp empiricaldispersion=gd3bj def2svp

Job prepared from Gaussian file nhc_neutral_singlet.log

0 1
C        0.9200700000    0.5470510000   -0.9928680000
C        1.8779140000    1.0073640000    0.9953310000
C        3.3985290000    1.0381780000   -0.9236710000
H        3.2763280000    1.3302030000   -1.9756010000
N        0.6515910000    0.7419540000    1.3029080000
N        0.0990320000    0.4611400000    0.0778280000
N        2.0691800000    0.9135920000   -0.3608650000
C        3.0355200000    1.4623450000    1.8208960000
H        2.6876820000    1.8889760000    2.7679600000
H        3.7128350000    0.6151710000    2.0390360000
C        4.2586860000    2.0943310000   -0.1377550000
O        3.6874200000    2.4787630000    1.0948050000
C        5.4442180000   -0.0230690000   -0.2453930000
C        4.1835840000   -0.2499980000   -0.7950320000
C        3.7565300000   -1.5310360000   -1.1367280000
C        4.6270280000   -2.5993000000   -0.9220330000
C        5.8955050000   -2.3799130000   -0.3740030000
C        6.3131020000   -1.0934260000   -0.0326980000
C        5.6522690000    1.4435170000    0.0360560000
H        2.7586740000   -1.6855320000   -1.5554020000
H        6.5640930000   -3.2260090000   -0.2077430000
H        7.3016140000   -0.9300420000    0.4007120000
H        6.0340270000    1.6471760000    1.0474930000
H        6.3730210000    1.8786470000   -0.6737620000
C       -1.2638790000    0.0794360000    0.0193200000
C       -1.6201090000   -1.2729770000    0.0981260000
C       -2.2690860000    1.0453220000   -0.1085400000
C       -2.9557900000   -1.6593610000    0.0375900000
C       -3.6086920000    0.6692520000   -0.1687670000
C       -3.9383410000   -0.6810650000   -0.0935270000
H       -3.2330810000   -2.7124190000    0.0857980000
H       -4.3914490000    1.4194710000   -0.2801440000
H        4.3226890000    3.0271780000   -0.7098360000
H        4.3176850000   -3.6127810000   -1.1817780000
I       -0.1339420000   -2.7378480000    0.3113690000
I       -1.7664970000    3.0770650000   -0.2141550000
C       -5.3900950000   -1.0924880000   -0.1014580000
F       -6.1404830000   -0.2232420000   -0.7766090000
F       -5.5520460000   -2.2933820000   -0.6559200000
F       -5.8786510000   -1.1600890000    1.1374510000

C H P O Si 0
def2svp
!  Def2-TZVPPD  EMSL  Basis Set Exchange Library   3/8/19 9:00 AM
! Elements                             References
! --------                             ----------
! H He Li Be B C N O F Ne Na Mg Al Si P S Cl Ar K Ca Sc Ti V Cr Mn Fe Co Ni Cu Zn Ga Ge As Se Br Kr Rb Sr Y Zr Nb Mo Tc Ru Rh Pd Ag Cd In Sn Sb Te I Xe Cs Ba La Hf Ta W Re Os Ir Pt Au Hg Tl Pb Bi Po At Rn: Dmitrij Rappoport and F. Furche, Property-optimized Gaussian basis sets for molecular response calculations, J. Chem. Phys. 133, 134105 (2010).
!
****
Ni     0
S   8   1.00
 351535.7293500              0.22529386884E-03
  52695.8092830              0.17468616223E-02
  11992.4682930              0.90849992136E-02
   3394.5776689              0.36940748447E-01
   1105.3594585              0.12032819950
    397.14677769             0.28596715057
    154.27542974             0.40983020196
     61.018723780            0.21620642851
S   4   1.00
    384.45559739            -0.24651279268E-01
    119.04879199            -0.11658505277
     19.137012223            0.54864126676
      8.1526718562           0.52640051122
S   2   1.00
     12.579408642           -0.22797884293
      2.0870866081           0.70703738215
S   1   1.00
      0.86432568555          1.0000000
S   1   1.00
      0.13283169217          1.0000000
S   1   1.00
      0.46845327726E-01            1.0000000
P   6   1.00
   1883.0907486              0.23748258443E-02
    445.95155320             0.19289457172E-01
    143.08430815             0.90718211507E-01
     53.372920722            0.26181414117
     21.321919357            0.42309149832
      8.6643561994           0.24641686015
P   3   1.00
     34.144255211           -0.29677129163E-01
      4.7122455921           0.55616824096
      1.8709231845           0.96357766460
P   1   1.00
      0.70370016267          1.0000000
P   1   1.00
      0.26460000000          1.0000000
P   1   1.00
      0.99550000000E-01            1.0000000
P   1   1.00
      0.36887339850E-01            1.0000000
D   4   1.00
     74.591603465            0.12077454672E-01
     21.590632752            0.74637262154E-01
      7.6246142580           0.23236775502
      2.8632206762           0.39042651680
D   1   1.00
      1.0311063388           1.0000000
D   1   1.00
      0.33060760691          1.0000000
D   1   1.00
      0.10600000000          1.0000000
F   1   1.00
      4.4460000000           1.0000000
F   1   1.00
      1.0870000000           1.0000000
G   1   1.00
      2.8720000000           1.0000000
****
! Elements                             References
! --------                             ----------
! Y-Cd(ecp-28), Hf-Hg(ecp-46): D. Andrae,U. Haeussermann, M.Dolg, H.Stoll, H.Preuss, Theor.Chim.Acta, 1990, 77, 123?141.
! In-Sb(ecp-28), Tl-Bi(ecp-46): B. Metz, H. Stoll, M. Dolg, J. Chem. Phys., 2000, 113, 2563?2569.
! Te-Xe(ecp-28), Po-Rn(ecp-46): K. A. Peterson, D. Figgen, E. Goll, H. Stoll, M. Dolg, J. Chem. Phys., 2003, 119, 11113?11123.
! Rb(ecp-28), Cs(ecp-46): T.Leininger, A.Nicklass, W.Kuechle, H.Stoll, M.Dolg, A.Bergner, Chem. Phys. Lett., 1996, 255, 274?280.
! Sr(ecp-28), Ba(ecp-46): M. Kaupp, P. V. Schleyer, H. Stoll and H. Preuss, J. Chem. Phys., 1991, 94, 1360?1366.
!
