6
Coordinates from ORCA-job /users/b163264/scratch/sn2_ts/sn2_ts E -599.585217353473
  C       0.000000      0.000000     -0.038166
  Cl      0.000000      0.000000      1.905623
  H       0.000000      1.037145     -0.327668
  H       0.899732     -0.518572     -0.327668
  H      -0.899732     -0.518572     -0.327668
  F       0.000000      0.000000     -1.905623
6
Coordinates from ORCA-job /users/b163264/scratch/sn2_ts/sn2_ts E -599.576505448257
  C       0.000000     -0.000189     -0.087874
  Cl     -0.000000      0.000208      1.911544
  H       0.000000      1.052037     -0.343350
  H       0.911639     -0.526346     -0.342777
  H      -0.911639     -0.526346     -0.342777
  F      -0.000000      0.000637     -1.815936
6
Coordinates from ORCA-job /users/b163264/scratch/sn2_ts/sn2_ts E -599.591913110953
  C       0.000000     -0.000303     -0.063796
  Cl     -0.000000      0.000362      1.949386
  H       0.000000      1.053865     -0.319509
  H       0.912881     -0.527527     -0.318637
  H      -0.912881     -0.527527     -0.318637
  F      -0.000000      0.001131     -1.949978
6
Coordinates from ORCA-job /users/b163264/scratch/sn2_ts/sn2_ts E -599.589032158355
  C      -0.000000     -0.000417     -0.020199
  Cl      0.000001      0.000920      1.951237
  H      -0.000000      1.031887     -0.335367
  H       0.894357     -0.517187     -0.334358
  H      -0.894358     -0.517187     -0.334358
  F       0.000001      0.001984     -1.948126
6
Coordinates from ORCA-job /users/b163264/scratch/sn2_ts/sn2_ts E -599.595996064693
  C      -0.000000     -0.000098      0.020339
  Cl      0.000000      0.001116      1.971642
  H      -0.000001      1.028918     -0.318676
  H       0.891161     -0.516577     -0.316527
  H      -0.891161     -0.516577     -0.316527
  F       0.000001      0.003220     -2.061421
6
Coordinates from ORCA-job /users/b163264/scratch/sn2_ts/sn2_ts E -599.597144727903
  C      -0.000000     -0.000352     -0.023196
  Cl      0.000000      0.001110      1.980636
  H      -0.000001      1.045267     -0.304730
  H       0.905412     -0.524483     -0.302985
  H      -0.905413     -0.524483     -0.302985
  F       0.000001      0.002942     -2.067909
6
Coordinates from ORCA-job /users/b163264/scratch/sn2_ts/sn2_ts E -599.598697350812
  C      -0.000000     -0.000405      0.009003
  Cl      0.000001      0.001538      1.975218
  H      -0.000001      1.040274     -0.293511
  H       0.901246     -0.522797     -0.290828
  H      -0.901247     -0.522797     -0.290828
  F       0.000001      0.004188     -2.130223
6
Coordinates from ORCA-job /users/b163264/scratch/sn2_ts/sn2_ts E -599.598777093945
  C      -0.000000     -0.000644     -0.035367
  Cl      0.000001      0.001658      1.983177
  H      -0.000000      1.053049     -0.282986
  H       0.912341     -0.528993     -0.280924
  H      -0.912342     -0.528993     -0.280924
  F       0.000001      0.003924     -2.124147
6
Coordinates from ORCA-job /users/b163264/scratch/sn2_ts/sn2_ts E -599.599010711352
  C      -0.000000     -0.000899     -0.037389
  Cl      0.000000      0.001965      1.979369
  H      -0.000000      1.055285     -0.271939
  H       0.914646     -0.530459     -0.269509
  H      -0.914646     -0.530459     -0.269509
  F       0.000000      0.004568     -2.152194
6
Coordinates from ORCA-job /users/b163264/scratch/sn2_ts/sn2_ts E -599.599044675846
  C      -0.000000     -0.001035     -0.046808
  Cl      0.000001      0.001893      1.978868
  H      -0.000000      1.057560     -0.268081
  H       0.916896     -0.531442     -0.265665
  H      -0.916897     -0.531442     -0.265665
  F       0.000001      0.004466     -2.153820
6
Coordinates from ORCA-job /users/b163264/scratch/sn2_ts/sn2_ts E -599.599021766265
  C      -0.000000     -0.001080     -0.044345
  Cl      0.000000      0.001833      1.978187
  H      -0.000000      1.057065     -0.268242
  H       0.916622     -0.531137     -0.265716
  H      -0.916622     -0.531137     -0.265716
  F       0.000001      0.004457     -2.155338
6
Coordinates from ORCA-job /users/b163264/scratch/sn2_ts/sn2_ts E -599.599020937503
  C      -0.000000     -0.001136     -0.044596
  Cl      0.000000      0.001774      1.978028
  H      -0.000000      1.057066     -0.268196
  H       0.916761     -0.531061     -0.265604
  H      -0.916761     -0.531060     -0.265605
  F       0.000000      0.004417     -2.155197
