6
sn2_ts.xyz    Empirical formula: CH3ClF    Energy(Hartree): -16315.920441    
C       -0.0000000000   -0.0010800000   -0.0443450000
Cl       0.0000000000    0.0018330000    1.9781870000
H       -0.0000000000    1.0570650000   -0.2682420000
H        0.9166220000   -0.5311370000   -0.2657160000
H       -0.9166220000   -0.5311370000   -0.2657160000
F        0.0000010000    0.0044570000   -2.1553380000
