! Opt Freq m062x def2-svp
# Number of processors
%pal nprocs 64 end
# Memory per core
%maxcore 6
* xyz 0 1
C       -1.0440166707   -2.3921211654   -1.1765767093
C        0.1047624537   -1.6967413479   -1.6013453653
C       -1.0128798417   -3.2879254912   -0.0053163255
C        1.3145315588   -1.7138241388   -0.7587637208
C       -2.1956491536   -2.3195387871   -1.9574947334
C        0.0850945133   -1.0180841072   -2.8171631370
C       -2.0177859335   -3.2670660274    0.9696450995
C        0.0124508943   -4.2217818399    0.1258570417
C       -2.2135839563   -1.6035487691   -3.1395296683
C       -1.0665510930   -0.9595571050   -3.5774468549
C        2.5400920741   -2.1858860815   -1.2071750125
C        1.1838300825   -1.3381272125    0.5871267480
C       -1.9555684177   -4.1320726770    2.0530866131
C        0.0635394663   -5.0900618978    1.1977630783
C       -0.9196318651   -5.0380578812    2.1711685897
C        3.5916426493   -2.3378999847   -0.3197251272
C        2.2150247173   -1.5701229140    1.4906743079
C        3.4197412441   -2.0662682694    1.0300787605
H       -3.0721784832   -2.8634742490   -1.6409739456
H        0.9825547054   -0.5255698568   -3.1562929025
H        0.7679618842   -4.2765326201   -0.6429544152
H       -3.1104424531   -1.5687612066   -3.7381610570
H       -1.0696068712   -0.4200127403   -4.5112753766
H        2.6529663285   -2.4651401722   -2.2438005431
H       -2.7313925548   -4.0908272834    2.8054872913
H        0.8661162156   -5.8065275878    1.2712292506
H       -0.8868628460   -5.7061993677    3.0172115549
H        4.5411701424   -2.7066585184   -0.6753204361
H        2.0719021247   -1.3307600343    2.5326097383
H        4.2288666166   -2.2366174850    1.7222357682
C       -0.0437643369   -0.6274725176    0.9856819116
O       -0.7619659970   -0.8562987079    1.9239633498
O       -3.0470173574   -2.3728700618    0.8501777316
H       -3.6159024202   -2.4491642642    1.6270363949
C       -0.3105658146    0.5231092666    0.0485393627
N        0.6273565662    1.3186295728   -0.4925766829
N       -1.4820218002    0.9427786602   -0.4496802496
N        0.0798109893    2.1887272597   -1.3460354794
C        1.9915852283    1.4003302459   -0.1480313627
C       -1.1960777900    1.9544995724   -1.3179918171
C       -2.8352452219    0.5761623303   -0.1207608337
C        2.3703689764    1.5210011449    1.1955102507
C        2.9873483595    1.4397518155   -1.1304199861
C       -2.3141233019    2.4943443485   -2.1296151912
H       -2.8437714712   -0.4682586982    0.2085062519
C       -3.7868291333    0.8083234921   -1.3406265784
C       -3.3634366095    1.5041303513    0.9509978809
C        3.7027087397    1.5892325539    1.5560071334
Cl       1.1654165974    1.6202704245    2.4198459806
C        4.3251784326    1.4995868307   -0.7733170410
Cl       2.5748319956    1.4277831087   -2.7881523792
H       -1.9468681972    2.9100154955   -3.0687226385
H       -2.8514474458    3.2767158272   -1.5730297738
O       -3.1441529408    1.4033311288   -2.4476602910
C       -4.9652944715    1.6572063723   -0.8089063450
H       -4.1324806301   -0.1510725791   -1.7300690517
C       -4.5380660463    2.1259878243    0.5464674044
C       -2.7995612836    1.7629011966    2.1854814464
C        4.6815978505    1.5557271849    0.5676537635
H        3.9794727489    1.6796711975    2.5937819502
H        5.0837471952    1.5116144946   -1.5391528713
H       -5.1841130096    2.4796890005   -1.4916470233
H       -5.8675364190    1.0492855150   -0.7333175316
C       -5.1665720311    3.0302080619    1.3825255606
C       -3.4334485849    2.6711137289    3.0200418477
H       -1.9009912964    1.2561753745    2.5018906402
Cl       6.3296631087    1.6075979187    1.0086128045
C       -4.6012239518    3.3015149137    2.6194057153
H       -6.0807488074    3.5143216606    1.0764103000
H       -3.0134935268    2.8856563390    3.9901859072
H       -5.0798259750    4.0072120708    3.2802403730
*
