%chk=aldehyde.chk
%nprocshared=24
%mem=60GB
# hf 6-31g

aldehyde

0 1
 C                 -0.54482100   -1.16945700    0.00012700
 C                  0.83787800   -1.04763500    0.00019000
 C                  1.43299400    0.21942900    0.00014400
 C                  0.63583500    1.36576500   -0.00000400
 C                 -0.75213900    1.25827500    0.00007100
 C                 -1.32836800   -0.01134200    0.00015600
 H                 -1.02986200   -2.14544900    0.00010200
 H                  1.48531900   -1.92624300    0.00026200
 H                  1.10509400    2.35270700    0.00005300
 H                 -1.39139500    2.14061000   -0.00001300
 C                  2.91426000    0.33638200    0.00001400
 O                  3.66252300   -0.60376900   -0.00029400
 H                  3.30255600    1.38424100    0.00015100
 Cl                -3.05563100   -0.15789600   -0.00014000
