%chk=ch_1c_meta_c1.chk
%nprocshared=64
%mem=32GB
# opt=(calcfc,ts,noeigentest,maxstep=10) freq genecp mn15

Gaussian job

0 1
 C                  3.73812500   -0.79926200   -0.33422000
 C                  4.88285000   -1.59006100   -0.13186600
 C                  6.12062700   -1.23934800   -0.66441700
 C                  6.24112600   -0.07271900   -1.42203000
 C                  5.11621000    0.71367100   -1.65926700
 C                  3.86948100    0.35567600   -1.13694300
 H                  4.79237500   -2.51164300    0.44781700
 H                  6.98762400   -1.87974100   -0.49295300
 H                  7.20559700    0.21446800   -1.84568900
 H                  5.17365000    1.61366800   -2.27579800
 C                  2.47223100   -1.14863600    0.35252300
 C                  2.47684600   -1.74526000    1.62267400
 C                  1.19869100   -0.85881500   -0.15421400
 H                  3.42724800   -1.96855600    2.11980500
 H                  1.06471900   -0.40579500   -1.13558300
 C                  0.21419100   -1.70436700    1.75114900
 H                 -0.71518800   -1.91256600    2.28978100
 O                  2.78075100    1.11216200   -1.45655100
 C                  2.57842200    2.36946200   -0.81071600
 H                  3.51807400    2.70637700   -0.34128300
 H                  2.30096600    3.09081100   -1.59402900
 C                  1.47304000    2.23098900    0.20440000
 C                  0.17051900    1.97787600   -0.24529500
 C                  1.73795800    2.17305500    1.57651700
 C                 -0.85708900    1.60169900    0.63552900
 H                 -0.03314700    2.01122000   -1.32232600
 C                  0.71540900    1.87871500    2.48663000
 H                  2.75556600    2.35337200    1.93681700
 C                 -0.56669500    1.59405800    2.01651000
 H                 -2.08711100    1.91313500    0.26744700
 H                 -1.35723000    1.33241900    2.72677800
 N                  1.36795900   -2.05021500    2.29513000
 N                  0.09419400   -1.09009800    0.56432600
 Pd                -1.74542300   -0.29905600    0.04106600
 O                 -4.19328200   -3.23081400   -1.10826600
 O                 -2.40697300   -2.09988200   -0.39093700
 O                 -3.24621700    2.44063600   -0.05624900
 N                 -3.56492500    0.24358100   -0.47938100
 C                 -4.39865400   -0.86214300   -0.90886200
 C                 -3.64712100   -2.19389500   -0.81050100
 C                 -3.99004000    1.49234100   -0.44135200
 C                 -5.40040100    1.81176700   -0.86417600
 H                 -5.31243300   -0.95980100   -0.29786800
 H                 -5.57515800    1.48526000   -1.89981100
 H                 -6.12099200    1.27575100   -0.22897300
 H                 -5.56467900    2.89094600   -0.78110400
 H                 -4.72977000   -0.75369100   -1.95640300
 H                  0.93018500    1.85243300    3.55736100
