%chk=modred_genecp.chk
%nprocshared=48
%mem=48GB
# opt=modred freq mn15 genecp

From inputfile PdOAc2.log

0 1
Pd      -0.0000010000   -0.0000000000   -0.0000040000
C       -3.8733030000    0.0000320000   -0.0130960000
C       -2.3835590000   -0.0000590000    0.0186630000
O       -1.7087280000   -1.0771970000    0.0183300000
O       -1.7087230000    1.0771380000    0.0183250000
C        2.3835620000    0.0000710000   -0.0186000000
C        3.8733110000   -0.0000330000    0.0129990000
O        1.7087230000   -1.0771280000   -0.0182810000
O        1.7087210000    1.0772000000   -0.0182700000
H       -4.2588740000    0.9054910000    0.4698210000
H       -4.1989950000   -0.0000150000   -1.0638280000
H       -4.2591170000   -0.9052350000    0.4699710000
H        4.2590770000    0.9056340000   -0.4693510000
H        4.1991260000   -0.0009450000    1.0636910000
H        4.2588190000   -0.9050810000   -0.4707460000

B 1 2 F
A 2 3 4 F

C H O 0
def2svp
!  Def2-TZVPPD  EMSL  Basis Set Exchange Library   1/6/18 3:57 AM
! Elements                             References
! --------                             ----------
! H He Li Be B C N O F Ne Na Mg Al Si P S Cl Ar K Ca Sc Ti V Cr Mn Fe Co Ni Cu Zn Ga Ge As Se Br Kr Rb Sr Y Zr Nb Mo Tc Ru Rh Pd Ag Cd In Sn Sb Te I Xe Cs Ba La Hf Ta W Re Os Ir Pt Au Hg Tl Pb Bi Po At Rn: Dmitrij Rappoport and F. Furche, Property-optimized Gaussian basis sets for molecular response calculations, J. Chem. Phys. 133, 134105 (2010).
!
****
Pd     0
S   2   1.00
     18.000000000           -0.16605388598
     14.662134308            0.34899955055
S   1   1.00
      5.6388709265           1.0000000
S   1   1.00
      1.3198953252           1.0000000
S   1   1.00
      0.57817908509          1.0000000
S   1   1.00
      0.10352166239          1.0000000
S   1   1.00
      0.37548442674E-01            1.0000000
P   4   1.00
     12.552899300            0.61728998206E-01
      7.2444496380          -0.24178626753
      1.8905941078           0.49453200915
      0.90737168760          0.50454362626
P   1   1.00
      0.40877210813          1.0000000
P   1   1.00
      0.11500000000          1.0000000
P   1   1.00
      0.37000000000E-01            1.0000000
D   4   1.00
     22.357457575            0.39559479546E-02
     10.682526382           -0.14039011601E-01
      2.4858232550           0.24219476776
      1.0735333903           0.42580283281
D   1   1.00
      0.42613842853          1.0000000
D   1   1.00
      0.15046355385          1.0000000
F   1   1.00
      2.2424600000           1.0000000
F   1   1.00
      0.63575000000          1.0000000
G   1   1.00
      1.3777000000           1.0000000
****
! Elements                             References
! --------                             ----------
! Y-Cd(ecp-28), Hf-Hg(ecp-46): D. Andrae,U. Haeussermann, M.Dolg, H.Stoll, H.Preuss, Theor.Chim.Acta, 1990, 77, 123?141.
! In-Sb(ecp-28), Tl-Bi(ecp-46): B. Metz, H. Stoll, M. Dolg, J. Chem. Phys., 2000, 113, 2563?2569.
! Te-Xe(ecp-28), Po-Rn(ecp-46): K. A. Peterson, D. Figgen, E. Goll, H. Stoll, M. Dolg, J. Chem. Phys., 2003, 119, 11113?11123.
! Rb(ecp-28), Cs(ecp-46): T.Leininger, A.Nicklass, W.Kuechle, H.Stoll, M.Dolg, A.Bergner, Chem. Phys. Lett., 1996, 255, 274?280.
! Sr(ecp-28), Ba(ecp-46): M. Kaupp, P. V. Schleyer, H. Stoll and H. Preuss, J. Chem. Phys., 1991, 94, 1360?1366.
!

PD     0
PD-ECP     3     28
f-ul potential
  2
2     13.2700000            -31.92955431
2      6.6300000             -5.39821694
s-ul potential
  4
2     12.4300000            240.22904033
2      6.1707594             35.17194347
2     13.2700000             31.92955431
2      6.6300000              5.39821694
p-ul potential
  4
2     11.0800000            170.41727605
2      5.8295541             28.47213287
2     13.2700000             31.92955431
2      6.6300000              5.39821694
d-ul potential
  4
2      9.5100000             69.01384488
2      4.1397811             11.75086158
2     13.2700000             31.92955431
2      6.6300000              5.39821694
