89
RR_T4_from_lowest_opt_c10.xyz    Empirical formula: C34H48Cl2N2O2Ti    Energy(Hartree): -3353.412765    
O       -1.4913030000   -0.9859720000    0.2828330000
O        1.4913010000   -0.9859680000   -0.2828410000
N       -1.2998010000    1.7458280000    0.3449410000
N        1.2998050000    1.7458310000   -0.3449300000
C       -0.5839760000    3.0135190000    0.5078730000
C        0.5839800000    3.0135240000   -0.5078510000
C       -1.4282550000    4.2823320000    0.3929760000
C        1.4282630000    4.2823340000   -0.3929300000
C       -0.5618220000    5.5383700000    0.5179650000
C        0.5618350000    5.5383780000   -0.5178880000
C       -3.0351510000   -3.3677600000   -0.0781430000
C        3.0351430000   -3.3677550000    0.0781800000
C       -7.1460120000   -0.3137770000   -0.0278330000
C        7.1460130000   -0.3137850000    0.0277950000
C       -3.6292720000   -1.9741660000    0.0436480000
C        3.6292680000   -1.9741660000   -0.0436450000
C       -5.6237670000   -0.5123760000    0.0450580000
C        5.6237680000   -0.5123820000   -0.0451130000
C       -2.5835500000    1.6634160000    0.3735460000
C        2.5835520000    1.6634140000   -0.3735880000
C       -3.3795600000    0.4565620000    0.2439360000
C        3.3795630000    0.4565590000   -0.2439810000
C       -5.0114130000   -1.7778220000   -0.0255740000
C        5.0114110000   -1.7778250000    0.0255520000
C       -2.8014160000   -0.8406450000    0.1917560000
C        2.8014150000   -0.8406440000   -0.1917680000
C       -4.7793740000    0.5891110000    0.1809310000
C        4.7793770000    0.5891050000   -0.1809990000
C       -2.2054020000   -3.5128620000   -1.3660600000
C       -2.2348860000   -3.7860590000    1.1662600000
C        2.2054220000   -3.5128380000    1.3661180000
C        2.2348480000   -3.7860690000   -1.1661980000
C       -7.6333040000    0.3760220000    1.2636370000
C       -7.8963520000   -1.6464050000   -0.1749450000
C       -7.4876880000    0.5711690000   -1.2450070000
C        7.4876700000    0.5709950000    1.2450970000
C        7.6333110000    0.3761980000   -1.2635720000
C        7.8963610000   -1.6464280000    0.1747170000
H       -0.1284240000    2.9663300000    1.5127690000
H        0.1284300000    2.9663520000   -1.5127490000
H       -2.2051030000    4.2907700000    1.1733440000
H       -1.9471020000    4.2860220000   -0.5821270000
H        2.2051070000    4.2907890000   -1.1733010000
H        1.9471140000    4.2859980000    0.5821710000
H       -1.1898140000    6.4367090000    0.4086110000
H       -0.1253610000    5.5808590000    1.5315960000
H        1.1898310000    6.4367120000   -0.4085150000
H        0.1253730000    5.5808930000   -1.5315180000
H       -3.1762050000    2.5791450000    0.5026800000
H        3.1762060000    2.5791390000   -0.5027590000
H       -5.6299770000   -2.6679790000   -0.1437560000
H        5.6299740000   -2.6679820000    0.1437380000
H       -5.1986830000    1.5968940000    0.2329720000
H        5.1986890000    1.5968860000   -0.2330620000
H       -1.3514070000   -2.8214690000   -1.3716960000
H       -1.8182650000   -4.5403700000   -1.4595790000
H       -2.8163180000   -3.2938390000   -2.2553690000
H       -1.9150140000   -4.8366980000    1.0754910000
H       -1.3378260000   -3.1645580000    1.2910450000
H       -2.8438350000   -3.6931890000    2.0792400000
H        1.3514280000   -2.8214450000    1.3717630000
H        2.8163570000   -3.2938020000    2.2554110000
H        1.8182870000   -4.5403450000    1.4596600000
H        2.8437720000   -3.6932080000   -2.0791960000
H        1.3377840000   -3.1645690000   -1.2909650000
H        1.9149780000   -4.8367070000   -1.0754100000
H       -7.1619450000    1.3606440000    1.4030310000
H       -7.3979500000   -0.2366870000    2.1477680000
H       -8.7242940000    0.5291540000    1.2315730000
H       -7.6117940000   -2.1762840000   -1.0968800000
H       -8.9802840000   -1.4594540000   -0.2205910000
H       -7.7103240000   -2.3166900000    0.6782370000
H       -8.5766310000    0.7256510000   -1.3165660000
H       -7.1446130000    0.1009410000   -2.1796400000
H       -7.0135850000    1.5618090000   -1.1750420000
H        8.5766100000    0.7254870000    1.3166860000
H        7.0135430000    1.5616330000    1.1752660000
H        7.1445970000    0.1006280000    2.1796610000
H        7.1619640000    1.3608440000   -1.4028330000
H        8.7243000000    0.5293220000   -1.2314770000
H        7.3979630000   -0.2363830000   -2.1477940000
H        7.7102790000   -2.3166180000   -0.6785280000
H        8.9802950000   -1.4594820000    0.2203240000
H        7.6118610000   -2.1764100000    1.0966100000
Ti      -0.0000010000    0.0423040000   -0.0000020000
Cl       0.5738260000    0.3470460000    2.2422960000
Cl      -0.5738240000    0.3470610000   -2.2422950000
H       -3.8927650000   -4.0577640000   -0.1609880000
H        3.8927570000   -4.0577610000    0.1610150000
