89
RR_T4_from_lowest_opt_c9.xyz    Empirical formula: C34H48Cl2N2O2Ti    Energy(Hartree): -3353.413450    
O       -1.4857370000   -0.9832570000    0.2874830000
O        1.4990450000   -0.9622280000   -0.2790510000
N       -1.3143020000    1.7491090000    0.3464310000
N        1.2847340000    1.7666590000   -0.3425330000
C       -0.6077320000    3.0220360000    0.5087590000
C        0.5604750000    3.0293320000   -0.5065810000
C       -1.4610760000    4.2846390000    0.3928710000
C        1.3958270000    4.3040920000   -0.3916560000
C       -0.6035060000    5.5467830000    0.5176310000
C        0.5207320000    5.5540160000   -0.5175810000
C       -3.0111130000   -3.3770460000   -0.0738690000
C        3.0592580000   -3.3336660000    0.0764420000
C       -7.1446680000   -0.3535360000   -0.0338700000
C        7.1547040000   -0.3304400000    0.0227900000
C       -3.6158650000   -1.9878380000    0.0455400000
C        3.6444570000   -1.9365180000   -0.0460440000
C       -5.6211330000   -0.5408370000    0.0419760000
C        5.6263020000   -0.4532100000   -0.0528740000
C       -2.5974860000    1.6575010000    0.3733760000
C        2.5697450000    1.6931420000   -0.3721050000
C       -3.3845540000    0.4448740000    0.2437190000
C        3.3751290000    0.4938030000   -0.2439110000
C       -4.9993020000   -1.8017990000   -0.0262800000
C        5.0199710000   -1.7266200000    0.0188000000
C       -2.7967250000   -0.8480490000    0.1939010000
C        2.8068030000   -0.8046980000   -0.1913110000
C       -4.7851850000    0.5670270000    0.1781970000
C        4.7784620000    0.6405230000   -0.1847090000
C       -2.1780180000   -3.5171140000   -1.3601890000
C       -2.2099000000   -3.7880370000    1.1723620000
C        2.2335650000   -3.4843250000    1.3662920000
C        2.2591490000   -3.7561910000   -1.1666040000
C       -7.4906180000    0.5273230000   -1.2528020000
C       -7.6393460000    0.3343250000    1.2558240000
C       -7.8849390000   -1.6918220000   -0.1805760000
C        7.6471090000   -0.9075750000    1.3667320000
C        7.6199750000    1.1302590000   -0.0752280000
C        7.7886660000   -1.1208700000   -1.1411830000
H       -0.1520880000    2.9787780000    1.5137960000
H        0.1054780000    2.9793260000   -1.5116330000
H       -2.2383690000    4.2879700000    1.1728530000
H       -1.9794370000    4.2842090000   -0.5825020000
H        2.1730140000    4.3177510000   -1.1715820000
H        1.9141880000    4.3116550000    0.5836740000
H       -1.2376890000    6.4406610000    0.4074260000
H       -0.1679410000    5.5928620000    1.5314910000
H        1.1424010000    6.4567530000   -0.4082850000
H        0.0845120000    5.5930660000   -1.5314620000
H       -3.1967770000    2.5691220000    0.5008680000
H        3.1548890000    2.6135610000   -0.5019450000
H       -5.6110790000   -2.6966160000   -0.1446480000
H        5.6536120000   -2.6094870000    0.1351160000
H       -5.2120560000    1.5717170000    0.2284390000
H        5.1828470000    1.6517380000   -0.2380440000
H       -1.7828930000   -4.5417330000   -1.4520010000
H       -2.7890090000   -3.3036180000   -2.2507820000
H       -1.3293680000   -2.8191690000   -1.3650820000
H       -1.8815420000   -4.8361860000    1.0830630000
H       -1.3180620000   -3.1592880000    1.2983330000
H       -2.8212810000   -3.6992620000    2.0841200000
H        1.3753600000   -2.7982220000    1.3745560000
H        2.8454590000   -3.2622500000    2.2541670000
H        1.8529530000   -4.5142180000    1.4600250000
H        2.8656850000   -3.6589130000   -2.0807230000
H        1.3578190000   -3.1405120000   -1.2892390000
H        1.9463530000   -4.8089220000   -1.0757270000
H       -7.1424550000    0.0584040000   -2.1862090000
H       -7.0238530000    1.5214750000   -1.1832900000
H       -8.5805260000    0.6737850000   -1.3265020000
H       -7.1754430000    1.3225360000    1.3948510000
H       -7.4011850000   -0.2755470000    2.1411630000
H       -8.7313580000    0.4794690000    1.2215540000
H       -7.6953580000   -2.3596750000    0.6737300000
H       -7.5950060000   -2.2207090000   -1.1014030000
H       -8.9701400000   -1.5129080000   -0.2282080000
H        8.7441890000   -0.8318680000    1.4398990000
H        7.2068080000   -0.3582260000    2.2133870000
H        7.3772130000   -1.9682900000    1.4789010000
H        7.3160620000    1.5922760000   -1.0273550000
H        7.2205370000    1.7420600000    0.7484160000
H        8.7184380000    1.1762380000   -0.0198120000
H        7.4524590000   -0.7251310000   -2.1122530000
H        8.8877560000   -1.0493790000   -1.1021900000
H        7.5217690000   -2.1875840000   -1.1034350000
Ti      -0.0016910000    0.0556630000    0.0040410000
Cl       0.5685990000    0.3630650000    2.2460670000
Cl      -0.5781520000    0.3502270000   -2.2387560000
H       -3.8633370000   -4.0735960000   -0.1575420000
H        3.9215800000   -4.0180710000    0.1570530000
