89
RR_T4_from_lowest_opt_c8.xyz    Empirical formula: C34H48Cl2N2O2Ti    Energy(Hartree): -3353.413450    
O        1.4990830000   -0.9621730000   -0.2800900000
O       -1.4856600000   -0.9832980000    0.2867010000
N        1.2848200000    1.7666890000   -0.3429820000
N       -1.3141830000    1.7490900000    0.3461010000
C        0.5605710000    3.0293700000   -0.5069280000
C       -0.6075900000    3.0220040000    0.5084690000
C        1.3959220000    4.3041230000   -0.3919750000
C       -1.4609460000    4.2846120000    0.3926800000
C        0.5208090000    5.5540390000   -0.5178470000
C       -0.6033840000    5.5467650000    0.5174140000
C        3.0591230000   -3.3336810000    0.0758140000
C       -3.0111980000   -3.3770420000   -0.0742260000
C        7.1546360000   -0.3305150000    0.0240860000
C       -7.1446900000   -0.3534640000   -0.0326620000
C        3.6443900000   -1.9365290000   -0.0463040000
C       -3.6158850000   -1.9878270000    0.0454470000
C        5.6262600000   -0.4532470000   -0.0521850000
C       -5.6211320000   -0.5407960000    0.0426640000
C        2.5698410000    1.6931840000   -0.3722250000
C       -2.5973600000    1.6574750000    0.3733560000
C        3.3751740000    0.4938210000   -0.2439470000
C       -3.3844720000    0.4448660000    0.2437740000
C        5.0198820000   -1.7266560000    0.0191020000
C       -4.9993430000   -1.8017630000   -0.0258970000
C        2.8068120000   -0.8046800000   -0.1917580000
C       -2.7966750000   -0.8480600000    0.1936180000
C        4.7784860000    0.6405160000   -0.1841980000
C       -4.7851230000    0.5670410000    0.1787190000
C        2.2329730000   -3.4844660000    1.3653550000
C        2.2594410000   -3.7560500000   -1.1675590000
C       -2.1784920000   -3.5170710000   -1.3608000000
C       -2.2096320000   -3.7881110000    1.1717520000
C        7.6465030000   -0.9078040000    1.3681590000
C        7.6199800000    1.1301840000   -0.0735960000
C        7.7890330000   -1.1208380000   -1.1397210000
C       -7.8850330000   -1.6917220000   -0.1792690000
C       -7.4910300000    0.5275300000   -1.2513870000
C       -7.6389300000    0.3342690000    1.2572670000
H        0.1055270000    2.9794210000   -1.5119610000
H       -0.1518990000    2.9786880000    1.5134840000
H        2.1731020000    4.3177940000   -1.1719100000
H        1.9142930000    4.3116750000    0.5833490000
H       -2.2381840000    4.2879260000    1.1727180000
H       -1.9793770000    4.2841910000   -0.5826550000
H        1.1424670000    6.4567840000   -0.4085600000
H        0.0845480000    5.5930990000   -1.5317100000
H       -1.2375890000    6.4406340000    0.4072590000
H       -0.1677720000    5.5928320000    1.5312560000
H        3.1550180000    2.6136240000   -0.5017710000
H       -3.1966180000    2.5690810000    0.5011090000
H        5.6534670000   -2.6095460000    0.1355650000
H       -5.6111720000   -2.6965630000   -0.1441270000
H        5.1829040000    1.6517340000   -0.2372330000
H       -5.2119660000    1.5717310000    0.2292140000
H        1.8523170000   -4.5143640000    1.4588450000
H        2.8445510000   -3.2624840000    2.2534700000
H        1.3747730000   -2.7983560000    1.3733870000
H        1.9465810000   -4.8087820000   -1.0769030000
H        1.3581740000   -3.1403280000   -1.2904440000
H        2.8663040000   -3.6586940000   -2.0814530000
H       -1.3298300000   -2.8191420000   -1.3659200000
H       -2.7897530000   -3.3035390000   -2.2512000000
H       -1.7834110000   -4.5416940000   -1.4527690000
H       -2.8207550000   -3.6993860000    2.0836880000
H       -1.3177550000   -3.1593740000    1.2975100000
H       -1.8813030000   -4.8362550000    1.0822990000
H        7.3765420000   -1.9685260000    1.4801070000
H        7.2058800000   -0.3585360000    2.2147000000
H        8.7435560000   -0.8321260000    1.4417640000
H        7.3164520000    1.5923090000   -1.0257940000
H        8.7184220000    1.1761320000   -0.0177430000
H        7.2202330000    1.7419070000    0.7499560000
H        7.4532210000   -0.7249850000   -2.1108820000
H        7.5220900000   -2.1875490000   -1.1021930000
H        8.8881100000   -1.0493840000   -1.1002870000
H       -8.9702450000   -1.5127830000   -0.2265480000
H       -7.5953920000   -2.2205260000   -1.1002360000
H       -7.6952020000   -2.3596620000    0.6749140000
H       -7.0242290000    1.5216690000   -1.1819230000
H       -7.1431810000    0.0587040000   -2.1849580000
H       -8.5809600000    0.6740140000   -1.3247100000
H       -7.1749570000    1.3224540000    1.3962460000
H       -8.7309500000    0.4794420000    1.2233710000
H       -7.4004920000   -0.2757040000    2.1424630000
Ti      -0.0016500000    0.0556720000    0.0032540000
Cl      -0.5783240000    0.3506590000   -2.2394040000
Cl       0.5687620000    0.3626210000    2.2453320000
H        3.9214030000   -4.0181120000    0.1566540000
H       -3.8634640000   -4.0735670000   -0.1576810000
