89
RR_T4_from_lowest_opt_c2.xyz    Empirical formula: C34H48Cl2N2O2Ti    Energy(Hartree): -3353.414134    
O        1.4934810000   -0.9594150000   -0.2838610000
O       -1.4934990000   -0.9594090000    0.2840960000
N        1.2992990000    1.7701900000   -0.3439880000
N       -1.2993270000    1.7701870000    0.3441370000
C        0.5842520000    3.0381690000   -0.5073840000
C       -0.5842860000    3.0381660000    0.5075390000
C        1.4287020000    4.3067970000   -0.3914630000
C       -1.4287380000    4.3067920000    0.3916330000
C        0.5624240000    5.5628860000   -0.5171680000
C       -0.5624580000    5.5628770000    0.5173720000
C        3.0351910000   -3.3431450000    0.0710310000
C       -3.0351700000   -3.3431580000   -0.0708690000
C        7.1530860000   -0.3704660000    0.0289290000
C       -7.1530680000   -0.3704770000   -0.0293990000
C        3.6311060000   -1.9502810000   -0.0484620000
C       -3.6310980000   -1.9502910000    0.0485160000
C        5.6239570000   -0.4817490000   -0.0497570000
C       -5.6239500000   -0.4817570000    0.0494990000
C        2.5838330000    1.6874660000   -0.3716210000
C       -2.5838640000    1.6874690000    0.3716490000
C        3.3802810000    0.4822510000   -0.2435000000
C       -3.3802990000    0.4822500000    0.2434890000
C        5.0080250000   -1.7507120000    0.0190840000
C       -5.0080080000   -1.7507210000   -0.0192270000
C        2.8022010000   -0.8120430000   -0.1936080000
C       -2.8022120000   -0.8120450000    0.1937140000
C        4.7845540000    0.6184650000   -0.1816560000
C       -4.7845650000    0.6184620000    0.1814740000
C        2.2059590000   -3.4893970000    1.3591090000
C        2.2342970000   -3.7577250000   -1.1741900000
C       -2.2056000000   -3.4893630000   -1.3587320000
C       -2.2346100000   -3.7578030000    1.1745470000
C        7.7833680000   -1.1641130000   -1.1348460000
C        7.6386170000   -0.9529390000    1.3730710000
C        7.6293790000    1.0868630000   -0.0663370000
C       -7.6384070000   -0.9529580000   -1.3736070000
C       -7.6293780000    1.0868510000    0.0657950000
C       -7.7835140000   -1.1641200000    1.1342910000
H        0.1291600000    2.9920920000   -1.5125850000
H       -0.1291930000    2.9920820000    1.5127400000
H        2.2063860000    4.3153380000   -1.1709890000
H        1.9465890000    4.3102540000    0.5841470000
H       -2.2064310000    4.3153140000    1.1711490000
H       -1.9466120000    4.3102740000   -0.5839830000
H        1.1903100000    6.4612120000   -0.4070140000
H        0.1271000000    5.6055280000   -1.5312910000
H       -1.1903390000    6.4612070000    0.4072380000
H       -0.1271350000    5.6054910000    1.5314960000
H        3.1756740000    2.6038560000   -0.4995070000
H       -3.1757150000    2.6038660000    0.4994430000
H        5.6348630000   -2.6384290000    0.1353500000
H       -5.6348300000   -2.6384420000   -0.1355480000
H        5.1965830000    1.6267000000   -0.2329150000
H       -5.1966000000    1.6266990000    0.2326450000
H        1.3530280000   -2.7967530000    1.3668620000
H        1.8173600000   -4.5165060000    1.4506250000
H        2.8178630000   -3.2732710000    2.2484400000
H        1.9126650000   -4.8079590000   -1.0852290000
H        1.3383490000   -3.1344600000   -1.2980360000
H        2.8435840000   -3.6643730000   -2.0868860000
H       -2.8172620000   -3.2731800000   -2.2482160000
H       -1.8169960000   -4.5164740000   -1.4501930000
H       -1.3526540000   -2.7967320000   -1.3662220000
H       -2.8441400000   -3.6644860000    2.0870840000
H       -1.3386870000   -3.1345580000    1.2986590000
H       -1.9129700000   -4.8080390000    1.0856250000
H        7.4519820000   -0.7646450000   -2.1060470000
H        7.5084800000   -2.2288640000   -1.0989870000
H        8.8828830000   -1.1008570000   -1.0936630000
H        8.7360860000   -0.8854800000    1.4484330000
H        7.3606440000   -2.0117640000    1.4833720000
H        7.2007790000   -0.4014080000    2.2195840000
H        7.2328930000    1.7005730000    0.7573150000
H        7.3307640000    1.5523360000   -1.0184590000
H        8.7280430000    1.1246100000   -0.0087260000
H       -7.3604140000   -2.0117830000   -1.4838620000
H       -8.7358640000   -0.8855020000   -1.4491280000
H       -7.2004470000   -0.4014300000   -2.2200600000
H       -8.7280350000    1.1245950000    0.0080420000
H       -7.3308850000    1.5523320000    1.0179510000
H       -7.2327890000    1.7005560000   -0.7578110000
H       -8.8830230000   -1.1008670000    1.0929490000
H       -7.5086190000   -2.2288700000    1.0984790000
H       -7.4522690000   -0.7646440000    2.1055370000
Ti      -0.0000070000    0.0692750000    0.0001110000
Cl      -0.5732440000    0.3662620000   -2.2423790000
Cl       0.5732570000    0.3663330000    2.2425800000
H        3.8921430000   -4.0341880000    0.1522840000
H       -3.8921090000   -4.0341870000   -0.1523710000
