%chk=custom_basis_for_all_elements.chk
%nprocshared=20
%mem=20GB
# opt freq m062x gen

From Gaussian inputfile

0 1
C       -0.5448210000   -1.1694570000    0.0001270000
C        0.8378780000   -1.0476350000    0.0001900000
C        1.4329940000    0.2194290000    0.0001440000
C        0.6358350000    1.3657650000   -0.0000040000
C       -0.7521390000    1.2582750000    0.0000710000
C       -1.3283680000   -0.0113420000    0.0001560000
H       -1.0298620000   -2.1454490000    0.0001020000
H        1.4853190000   -1.9262430000    0.0002620000
H        1.1050940000    2.3527070000    0.0000530000
H       -1.3913950000    2.1406100000   -0.0000130000
C        2.9142600000    0.3363820000    0.0000140000
O        3.6625230000   -0.6037690000   -0.0002940000
H        3.3025560000    1.3842410000    0.0001510000
Cl      -3.0556310000   -0.1578960000   -0.0001400000

!----------------------------------------------------------------------
! Basis Set Exchange
! Version v0.9.1
! https://www.basissetexchange.org
!----------------------------------------------------------------------
!   Basis set: def2-TZVPPD
! Description: def2-TZVPPD
!        Role: orbital
!     Version: 1  (Data from Turbomole 7.3)
!----------------------------------------------------------------------
H     0
S    3   1.00
     34.0613410              0.60251978D-02
      5.1235746              0.45021094D-01
      1.1646626              0.20189726
S    1   1.00
      0.32723041             1.0000000
S    1   1.00
      0.10307241             1.0000000
P    1   1.00
      1.40700000             1.0000000
P    1   1.00
      0.38800000             1.0000000
P    1   1.00
      0.95774129632D-01      1.0000000
D    1   1.00
      1.05700000             1.0000000
****
C     0
S    6   1.00
  13575.3496820              0.22245814352D-03
   2035.2333680              0.17232738252D-02
    463.22562359             0.89255715314D-02
    131.20019598             0.35727984502D-01
     42.853015891            0.11076259931
     15.584185766            0.24295627626
S    2   1.00
      6.2067138508           0.41440263448
      2.5764896527           0.23744968655
S    1   1.00
      0.57696339419          1.0000000
S    1   1.00
      0.22972831358          1.0000000
S    1   1.00
      0.95164440028D-01      1.0000000
S    1   1.00
      0.48475401370D-01      1.0000000
P    4   1.00
     34.697232244            0.53333657805D-02
      7.9582622826           0.35864109092D-01
      2.3780826883           0.14215873329
      0.81433208183          0.34270471845
P    1   1.00
      0.28887547253           .46445822433
P    1   1.00
      0.10056823671           .24955789874
D    1   1.00
      1.09700000             1.0000000
D    1   1.00
      0.31800000             1.0000000
D    1   1.00
      0.90985336424D-01      1.0000000
F    1   1.00
      0.76100000             1.0000000
****
O     0
S    6   1.00
  27032.3826310              0.21726302465D-03
   4052.3871392              0.16838662199D-02
    922.32722710             0.87395616265D-02
    261.24070989             0.35239968808D-01
     85.354641351            0.11153519115
     31.035035245            0.25588953961
S    2   1.00
     12.260860728            0.39768730901
      4.9987076005           0.24627849430
S    1   1.00
      1.1703108158           1.0000000
S    1   1.00
      0.46474740994          1.0000000
S    1   1.00
      0.18504536357          1.0000000
S    1   1.00
      0.70288026270D-01      1.0000000
P    4   1.00
     63.274954801            0.60685103418D-02
     14.627049379            0.41912575824D-01
      4.4501223456           0.16153841088
      1.5275799647           0.35706951311
P    1   1.00
      0.52935117943           .44794207502
P    1   1.00
      0.17478421270           .24446069663
P    1   1.00
      0.51112745706D-01      1.0000000
D    1   1.00
      2.31400000             1.0000000
D    1   1.00
      0.64500000             1.0000000
D    1   1.00
      0.14696477366          1.0000000
F    1   1.00
      1.42800000             1.0000000
****
Cl     0
S    7   1.00
  69507.9909450              0.54314897497D-03
  10426.1568800              0.41990463961D-02
   2373.2334061              0.21592141679D-01
    671.56420071             0.84598850094D-01
    218.41999790             0.24757249724
     77.572249714            0.47016930228
     28.888815277            0.37436370716
S    3   1.00
    127.10527185             0.25182166603D-01
     39.339582961            0.10786112456
      7.6740679989          -0.27408821574
S    2   1.00
      3.8745627630           1.3213875014
      1.8385832573           0.68636955368
S    1   1.00
      0.50229057542          1.0000000
S    1   1.00
      0.17962723420          1.0000000
S    1   1.00
      0.61133095854D-01      1.0000000
P    5   1.00
    666.50423284             0.23632663836D-02
    157.64241690             0.18879300374D-01
     50.262520978            0.87206341273D-01
     18.536078105            0.25285612970
      7.2940532777           0.43507154820
P    1   1.00
      2.9433248995            .35026513165
P    1   1.00
      1.0404970818           1.0000000
P    1   1.00
      0.38456415080          1.0000000
P    1   1.00
      0.13069642732          1.0000000
P    1   1.00
      0.35381580722D-01      1.0000000
D    1   1.00
      4.61000000             1.0000000
D    1   1.00
      1.01100000             1.0000000
D    1   1.00
      0.339000000            1.0000000
D    1   1.00
      0.99601358790D-01      1.0000000
F    1   1.00
      0.706000000            1.0000000
****
