%chk=normal_ts_solv_modred.chk
%nprocshared=32
%mem=30GB
# opt=modred freq m062x def2svp scrf=(smd,solvent=toluene)

From inputfile normal_ts.log

0 1
O        2.7587950000   -0.3708650000    0.1760480000
N       -0.5719010000    1.0119410000   -0.3205070000
C        0.7993120000    0.9058890000    0.1819730000
C        1.4325270000   -0.3965100000   -0.2736570000
H        0.7917030000    0.9404510000    1.2827420000
H        1.3984730000    1.7471960000   -0.1922940000
H        1.3644320000   -0.4683450000   -1.3761350000
H        0.8670770000   -1.2456360000    0.1527810000
H       -1.0124050000    0.3763830000   -1.3148700000
H       -0.9842130000    1.9224790000   -0.1089980000
H        3.1635710000   -1.2274950000    0.0102440000
C       -1.5003880000   -0.1550200000    0.1361800000
O       -1.7948980000   -0.6145170000   -1.0119770000
O       -1.7106500000   -0.4214650000    1.2763180000

B 2 12 F
B 9 2 F
