539
A_in_S_3c.xyz    Empirical formula: C174H209CuN57O86P12    Energy(Hartree): -22051.327632    
O        9.3772660000   -8.1598450000   -5.7944640000
C       10.1287080000   -8.7694100000   -4.7711440000
C        9.9171910000   -8.0199030000   -3.4509290000
O       10.5085370000   -6.7244350000   -3.5131390000
C        8.4321910000   -7.7947680000   -3.1262200000
O        8.2345500000   -7.7425880000   -1.7142220000
C        8.1846980000   -6.3985460000   -3.6719400000
C        9.5087840000   -5.7419100000   -3.2823650000
N        9.8306470000   -4.5388560000   -4.0013110000
C       10.1106950000   -3.3715510000   -3.2805290000
O       10.1097010000   -3.4121260000   -2.0425310000
N       10.3799180000   -2.2501890000   -3.9470110000
C       10.3782160000   -2.2138120000   -5.2819670000
N       10.6035860000   -1.0573140000   -5.8808210000
C       10.1664400000   -3.4091350000   -6.0379920000
C        9.9007310000   -4.5425060000   -5.3535750000
P        7.7845340000   -9.0461870000   -0.9347270000
O        8.6558220000  -10.2217380000   -1.1196790000
O        7.6620930000   -8.5047650000    0.5588870000
C        8.8495800000   -8.3503120000    1.3285640000
C        8.6078560000   -7.3636120000    2.4823340000
O        8.7212180000   -6.0158390000    2.0611090000
C        7.2146300000   -7.5199770000    3.1220520000
O        7.3298990000   -7.5591090000    4.5427930000
C        6.4163170000   -6.3531000000    2.5517070000
C        7.4618950000   -5.3745120000    1.9998140000
N        7.1814590000   -4.9398460000    0.6498700000
C        6.6242350000   -5.6341790000   -0.3910230000
N        6.5921520000   -4.9669020000   -1.5049330000
C        7.1609130000   -3.7561980000   -1.2189750000
C        7.4234850000   -2.6182040000   -2.0343250000
O        7.2637860000   -2.5210750000   -3.2548290000
N        7.9195670000   -1.5559160000   -1.3032160000
C        8.2414550000   -1.6111250000    0.0225690000
N        8.7536030000   -0.5165800000    0.5790210000
N        8.0711200000   -2.6863220000    0.7763690000
C        7.5290350000   -3.7254640000    0.1322360000
P        6.9019150000   -6.5092390000    5.6558050000
O        7.4042680000   -6.9504810000    6.9599370000
O        7.4220070000   -5.0746830000    5.1837490000
C        8.2916080000   -4.3542970000    6.0461810000
C        7.6338810000   -3.1032580000    6.6411340000
O        7.5228670000   -2.0766040000    5.6650470000
C        6.2308180000   -3.3337290000    7.2320000000
O        6.3069860000   -3.2488190000    8.6501010000
C        5.3815250000   -2.2018090000    6.6525670000
C        6.1862340000   -1.6857130000    5.4616050000
P        5.2063790000   -3.9077120000    9.5711290000
O        5.5564070000   -3.8208630000   10.9931390000
O        3.7739390000   -3.2513310000    9.2209390000
C        3.1220100000   -2.4760330000   10.2107040000
C        3.0712620000   -0.9816270000    9.8425580000
C        1.9448070000   -0.6525040000    8.8377610000
O        1.7695280000    0.7535370000    8.8002440000
C        2.2418380000   -1.1473350000    7.4235460000
P        0.5089590000    1.2597940000    9.7306170000
O        0.7738740000    0.9655380000   11.1658940000
O        0.7182010000    2.8632130000    9.5392200000
C        0.9783590000    3.4642700000    8.2878580000
C       -0.2694110000    3.7099010000    7.4316610000
O       -0.5762790000    2.5709330000    6.6496810000
C       -1.5386940000    4.0698410000    8.2451970000
O       -1.8796600000    5.4324060000    8.0175910000
C       -2.5567940000    3.0343090000    7.7874700000
C       -1.9831830000    2.5988240000    6.4375660000
P       -3.1052290000    6.0806320000    7.2353090000
O       -2.8869550000    7.5264710000    7.1267710000
O       -3.2794530000    5.3196820000    5.8443630000
C       -2.7537990000    5.8982090000    4.6553520000
C       -3.8755670000    6.3092190000    3.6936900000
O       -4.5073370000    5.1896470000    3.0952360000
C       -4.9819040000    7.1217000000    4.3795650000
O       -5.3597690000    8.1627930000    3.4819070000
C       -6.0804950000    6.0949640000    4.6322620000
C       -5.8083470000    4.9791980000    3.6157040000
N       -5.9248340000    3.6561950000    4.1781330000
C       -5.5770380000    3.1763260000    5.4122420000
N       -5.7831660000    1.9043000000    5.5628810000
C       -6.2938080000    1.4804480000    4.3612090000
C       -6.6996540000    0.2211250000    3.8639300000
N       -6.6763900000   -0.9090440000    4.5518200000
N       -7.1363090000    0.2001060000    2.5867250000
C       -7.1682860000    1.3084640000    1.8616260000
N       -6.8148680000    2.5232260000    2.2199670000
C       -6.3784000000    2.5697670000    3.4854960000
P       -6.6892420000    9.0179280000    3.6392950000
O       -6.5679500000   10.3173760000    2.9704600000
O       -7.8810230000    8.1160280000    3.0424790000
C       -7.9621180000    8.1109390000    1.6187610000
C       -9.0567580000    7.1586620000    1.1647070000
O       -8.6939220000    5.8177440000    1.4480240000
C      -10.4199790000    7.3780280000    1.8423080000
C      -11.0629760000    5.9850770000    1.7137260000
C       -9.8666580000    5.0289850000    1.5300750000
C      -11.0989500000   -5.4154970000   -3.2857590000
C      -10.5662950000   -3.9847190000   -3.3339190000
O      -10.1775890000   -3.5937130000   -2.0234960000
C       -9.3197570000   -3.8458450000   -4.2367720000
O       -9.5151370000   -2.7267080000   -5.0906860000
C       -8.1846120000   -3.6429480000   -3.2428230000
C       -8.9120900000   -2.9562860000   -2.0843930000
N       -8.2680240000   -3.0428710000   -0.7958600000
C       -8.1608400000   -1.8888020000   -0.0408960000
O       -8.3856820000   -0.7831610000   -0.5064590000
N       -7.7370780000   -2.0629530000    1.2389920000
C       -7.4816700000   -3.2541990000    1.8737370000
O       -7.2656370000   -3.2860740000    3.0796470000
C       -7.4861600000   -4.4166910000    1.0014550000
C       -7.0255910000   -5.7231920000    1.5616470000
C       -7.8999730000   -4.2526770000   -0.2703140000
P       -8.2958150000   -2.2339080000   -6.0229680000
O       -7.2222430000   -3.2141000000   -6.1962070000
O       -7.7594840000   -0.8858310000   -5.3755620000
C       -8.6626370000    0.2022730000   -5.1901980000
C       -7.8894140000    1.3920580000   -4.6212250000
O       -7.4591960000    1.0961270000   -3.3002110000
C       -6.6329070000    1.7504300000   -5.4415110000
O       -6.6113370000    3.1619230000   -5.6036750000
C       -5.4922070000    1.2043640000   -4.5954740000
C       -6.0608880000    1.2551790000   -3.1734580000
P       -5.2740700000    3.9373770000   -6.0266710000
O       -4.3647480000    3.1175730000   -6.8454820000
O       -4.7851540000    4.3645750000   -4.5729270000
C       -3.5187110000    4.8633250000   -4.1825790000
C       -2.5703760000    5.0361110000   -5.3693850000
O       -3.2464860000    5.7300000000   -6.4037790000
C       -1.3235920000    5.8639350000   -5.0210300000
O       -0.2472180000    5.3586230000   -5.7839780000
C       -1.7315520000    7.2736400000   -5.4400370000
C       -2.6837380000    7.0094460000   -6.6120120000
P        1.2758300000    5.8149680000   -5.4079600000
O        2.1537970000    4.9999990000   -6.2819470000
O        1.3124600000    5.2231920000   -3.8596410000
C        1.7726860000    6.0583430000   -2.8271380000
C        3.2480790000    5.8042880000   -2.5108980000
O        3.4103670000    4.4683200000   -2.0575470000
C        4.1785790000    5.9688600000   -3.7255220000
O        5.4381370000    6.4671660000   -3.2934770000
C        4.4118590000    4.5387140000   -4.1812300000
C        4.4251170000    3.8360180000   -2.8268050000
P        5.7973340000    8.0085170000   -3.3242770000
O        6.0364930000    8.6138820000   -4.6379630000
O        7.0977830000    8.0379490000   -2.4170510000
C        7.0729070000    7.5077920000   -1.0898350000
C        8.0590270000    6.3520660000   -0.9289140000
O        7.5535740000    5.1485770000   -1.4843310000
C        9.4287190000    6.6131700000   -1.6065410000
O       10.4392770000    6.5555750000   -0.6089540000
C        9.5571400000    5.4620170000   -2.5966390000
C        8.7012600000    4.4077580000   -1.8889890000
N        8.3399520000    3.2477060000   -2.6453910000
C        8.4928880000    1.9714220000   -2.0588580000
O        8.9709250000    1.8841170000   -0.9257180000
N        8.1453980000    0.8932440000   -2.7581410000
C        7.6373390000    0.9881910000   -3.9864360000
N        7.3109730000   -0.1199540000   -4.6259720000
C        7.4442710000    2.2705750000   -4.5932800000
C        7.7988370000    3.3596910000   -3.8809880000
P       11.6485750000    7.5831080000   -0.7753850000
O       12.2421610000    7.6970590000   -2.1115070000
O       12.6979620000    7.1051540000    0.2996320000
C       12.3426430000    6.8766780000    1.6683160000
C       12.7014630000    5.4504890000    2.0750490000
O       11.8436270000    4.5067960000    1.4483390000
C       14.1432960000    5.0542010000    1.7111030000
O       14.9884830000    5.4301780000    2.7617020000
C       14.0175100000    3.5364940000    1.5074830000
C       12.5579810000    3.3482060000    1.0744200000
N       12.4108760000    3.1262260000   -0.3484410000
C       12.4498530000    4.0329250000   -1.3725460000
N       12.0974650000    3.5357560000   -2.5209040000
C       11.8042970000    2.2152350000   -2.2683940000
C       11.2929550000    1.1716240000   -3.0913930000
O       10.9376600000    1.2425630000   -4.2748060000
N       11.2101890000   -0.0320180000   -2.4158210000
C       11.5095800000   -0.2106280000   -1.0937410000
N       11.4774030000   -1.4517140000   -0.6112710000
N       11.8938220000    0.7702770000   -0.2959470000
C       12.0082700000    1.9515490000   -0.9110470000
H        9.7465990000   -5.5006280000   -5.8268440000
H       10.2208260000   -3.3975920000   -7.1109660000
H       10.7221720000   -0.2053660000   -5.3307100000
H       10.6086120000   -1.0038890000   -6.8849460000
H        9.4980960000   -5.4699620000   -2.2156960000
H        7.3374590000   -5.9075470000   -3.1976980000
H        8.0727780000   -6.4420490000   -4.7528440000
H        7.7951260000   -8.5634300000   -3.5620020000
H       10.3965110000   -8.5871410000   -2.6441910000
H       11.1996210000   -8.7353580000   -5.0028820000
H        9.8184790000   -9.8095650000   -4.6177100000
H        9.4842600000   -8.6695980000   -6.6107120000
H        6.2595860000   -6.6361620000   -0.3057890000
H        8.0833100000   -0.6685440000   -1.8184540000
H        8.8649650000    0.3485130000    0.0517260000
H        8.9728030000   -0.5449550000    1.5591610000
H        7.5397680000   -4.4524150000    2.5899440000
H        5.8099440000   -5.8704220000    3.3085910000
H        5.7663960000   -6.6985480000    1.7532520000
H        6.7819790000   -8.4855870000    2.8521340000
H        9.3903260000   -7.5277340000    3.2309550000
H        9.6547640000   -7.9620210000    0.7013910000
H        9.1391900000   -9.3270640000    1.7225470000
H        6.1822970000   -0.5952600000    5.3531720000
H        5.2842730000   -1.4331280000    7.4185260000
H        4.3932480000   -2.5352220000    6.3544820000
H        5.8554420000   -4.3227810000    6.9650720000
H        8.2938160000   -2.7311570000    7.4351120000
H        9.1464050000   -4.0373850000    5.4450100000
H        8.6131940000   -5.0098450000    6.8592610000
H        2.4820130000   -2.2072190000    7.4644790000
H        3.1015320000   -0.5756170000    7.0674150000
H        1.0145270000   -1.1000440000    9.2162590000
H        2.7977080000   -0.4298660000   10.7489730000
H        3.6671750000   -2.5925710000   11.1507330000
H        2.1062250000   -2.8581940000   10.3229280000
H       -2.2128860000    3.3385080000    5.6562560000
H       -3.5648620000    3.4245980000    7.7177580000
H       -2.5211970000    2.1840400000    8.4693980000
H       -1.3317780000    3.9916350000    9.3159420000
H       -0.0533330000    4.5526330000    6.7543990000
H        1.6682880000    2.8407520000    7.7155730000
H        1.4406800000    4.4243770000    8.5304710000
H       -5.1665120000    3.7991360000    6.1785190000
H       -7.5309990000    1.1896260000    0.8482970000
H       -6.3095750000   -0.8964370000    5.4873930000
H       -6.9046730000   -1.7946750000    4.0954240000
H       -6.5090970000    4.9950000000    2.7672470000
H       -7.0628770000    6.5324510000    4.4914910000
H       -6.0018190000    5.7153160000    5.6476390000
H       -4.6271580000    7.5818370000    5.3044780000
H       -3.4298910000    6.8975370000    2.8841600000
H       -2.1414160000    5.1353060000    4.1675380000
H       -2.1584980000    6.7777380000    4.9104390000
H       -9.9679590000    4.4076890000    0.6299560000
H      -11.7011270000    5.9668010000    0.8319260000
H      -11.6448200000    5.7069330000    2.5893850000
H      -10.2536640000    7.6394970000    2.8946490000
H       -9.1903100000    7.2908490000    0.0805330000
H       -7.0039390000    7.7890100000    1.2041140000
H       -8.1826280000    9.1236770000    1.2741280000
H       -7.9583400000   -5.0872430000   -0.9522370000
H       -7.6057560000   -1.1864900000    1.8043990000
H       -7.0936070000   -6.5110770000    0.8205660000
H       -5.9990500000   -5.6265800000    1.9090830000
H       -7.6223650000   -5.9782550000    2.4339650000
H       -9.0392620000   -1.8800330000   -2.2804030000
H       -7.3927050000   -3.0356050000   -3.6642780000
H       -7.7992570000   -4.6141280000   -2.9403800000
H       -9.1699330000   -4.7314350000   -4.8562190000
H      -11.3554240000   -3.3162230000   -3.6993300000
H      -11.9101530000   -5.4818690000   -2.5584790000
H      -11.4575280000   -5.7272100000   -4.2682330000
H       -5.8345550000    2.2108650000   -2.6778630000
H       -4.5927660000    1.8013700000   -4.7045360000
H       -5.3009130000    0.1746790000   -4.8908050000
H       -6.6524210000    1.2956020000   -6.4342100000
H       -8.5559750000    2.2615780000   -4.5863430000
H       -9.4398760000   -0.0888710000   -4.4813720000
H       -9.1142320000    0.4703490000   -6.1455970000
H       -2.1467120000    7.0231400000   -7.5703420000
H       -0.8606840000    7.8533280000   -5.7339150000
H       -2.2553690000    7.7755810000   -4.6272350000
H       -1.0632680000    5.8054120000   -3.9605860000
H       -2.2815940000    4.0611510000   -5.7721050000
H       -3.0944300000    4.1637470000   -3.4573510000
H       -3.6916180000    5.8259430000   -3.6913610000
H        5.3984770000    3.9903920000   -2.3335400000
H        5.3497410000    4.4382030000   -4.7167360000
H        3.5851720000    4.2262770000   -4.8166280000
H        3.7482710000    6.6117930000   -4.4968040000
H        3.5588720000    6.4925020000   -1.7148720000
H        1.1788590000    5.8198150000   -1.9406410000
H        1.6457630000    7.1067940000   -3.1147000000
H        7.6647090000    4.3670120000   -4.2457820000
H        7.0226330000    2.3577260000   -5.5785510000
H        7.3709260000   -1.0279410000   -4.1523760000
H        6.9128630000   -0.0606890000   -5.5475840000
H        9.2283910000    4.0386370000   -0.9932170000
H       10.5839560000    5.1447190000   -2.7566810000
H        9.1028500000    5.7522470000   -3.5427940000
H        9.4561540000    7.5839680000   -2.1028720000
H        8.2393490000    6.1939640000    0.1446640000
H        6.0713090000    7.1548570000   -0.8438220000
H        7.3704950000    8.3204310000   -0.4244920000
H       12.7334400000    5.0572970000   -1.2320390000
H       10.8531070000   -0.8511940000   -2.9597910000
H       11.0010440000   -2.1931890000   -1.1260590000
H       11.5990140000   -1.5521020000    0.3817490000
H       12.0937110000    2.4678550000    1.5370430000
H       14.1891880000    3.0378230000    2.4608360000
H       14.7005370000    3.1439970000    0.7589310000
H       14.4256450000    5.5523840000    0.7745030000
H       15.9123500000    5.2947250000    2.5078980000
H       12.5867070000    5.3712680000    3.1662820000
H       11.2752600000    7.0416400000    1.8078040000
H       12.9276060000    7.5720440000    2.2732790000
O      -10.0221620000   -6.2554520000   -2.8809200000
O      -11.1026980000    8.3943300000    1.1657290000
H      -11.9014140000    8.6406960000    1.6537620000
N        4.1912770000    2.4217190000   -2.8480280000
C        4.9996340000    1.6154680000   -2.0207520000
O        5.8981040000    2.1477320000   -1.3632210000
N        4.7612960000    0.3105870000   -1.9720450000
C        3.7787170000   -0.2538320000   -2.6797140000
N        3.6351730000   -1.5625500000   -2.6105930000
C        2.9047000000    0.5531560000   -3.4793510000
C        3.1354350000    1.8832870000   -3.5098810000
N        5.6780370000   -2.1949880000    4.2067980000
C        5.1244540000   -3.4151950000    3.9217490000
N        4.8201130000   -3.5669030000    2.6677560000
C        5.1826820000   -2.3891540000    2.0647740000
C        5.1036450000   -1.9458990000    0.7167870000
O        4.7356270000   -2.5967420000   -0.2654330000
N        5.4986440000   -0.6282750000    0.5751300000
C        5.9773480000    0.1616760000    1.5850020000
N        6.2796240000    1.4247110000    1.3027350000
N        6.1226650000   -0.2637560000    2.8266710000
C        5.7152320000   -1.5213880000    3.0237540000
H        2.5054390000    2.5785940000   -4.0447230000
H        2.0769390000    0.1154250000   -4.0104320000
H        4.1800810000   -2.0716530000   -1.9147300000
H        2.8249500000   -2.0018710000   -3.0294650000
H        4.9499050000   -4.1563120000    4.6728930000
H        5.3951410000   -0.2359270000   -0.3794550000
H        6.2744590000    1.7565960000    0.3424840000
H        6.7289300000    1.9698360000    2.0174930000
N       -3.7353600000    8.0074360000   -6.7161130000
C       -3.6366930000    8.9549270000   -7.7065400000
O       -2.7162310000    8.9924220000   -8.5070000000
N       -4.6542210000    9.8679640000   -7.7316490000
C       -5.7551070000    9.9391220000   -6.8897060000
O       -6.5866400000   10.8182650000   -7.0501710000
C       -5.7941890000    8.8978390000   -5.8784900000
C       -6.9460930000    8.8701200000   -4.9273230000
C       -4.7900640000    8.0001970000   -5.8431680000
N        0.6621860000   -1.8304320000    5.7733340000
H       -4.7873090000    7.1888690000   -5.1341800000
H       -4.5890170000   10.5778850000   -8.4559850000
H       -7.0694060000    7.8788020000   -4.5050240000
H       -6.7831380000    9.5855290000   -4.1229170000
H       -7.8496460000    9.1705890000   -5.4513430000
P      -10.2896120000   -7.7320320000   -2.3738170000
O       -9.0285900000   -8.3358050000   -1.9337760000
O      -11.4624250000   -7.6791860000   -1.2861820000
C      -11.1461620000   -7.7238040000    0.1016010000
C      -12.4336000000   -7.4695320000    0.8970080000
H      -10.7113260000   -8.6986210000    0.3268810000
C      -10.2330880000   -6.5909260000    0.5386330000
C      -12.5388720000   -8.3615770000    2.1426950000
H      -13.3107520000   -7.6493090000    0.2663260000
O      -12.4401480000   -6.0856950000    1.2348240000
C      -11.1964470000   -5.4730960000    0.9534800000
H       -9.6412220000   -6.9177950000    1.3906820000
H       -9.5829790000   -6.2825790000   -0.2709620000
H      -13.3017380000   -7.9270590000    2.7997320000
H      -12.8606520000   -9.3577710000    1.8210470000
H      -11.3317050000   -4.7215760000    0.1618460000
O      -11.2907090000   -8.4293640000    2.7972040000
H      -11.3418480000   -9.0713690000    3.5194300000
N      -10.7416430000   -4.7288990000    2.1156540000
C      -10.6114610000   -3.3350390000    2.0432470000
O      -10.7826130000   -2.7736380000    0.9535480000
N      -10.2934170000   -2.6523510000    3.1434190000
C      -10.0321150000   -3.2706720000    4.2995260000
N       -9.7106200000   -2.5453860000    5.3532290000
C      -10.1462920000   -4.6935340000    4.3961130000
C      -10.5243920000   -5.3704260000    3.2924630000
N       -9.7252530000    4.0984670000    2.6177850000
C       -9.3079260000    4.3500830000    3.8972340000
N       -9.2444960000    3.2907570000    4.6437890000
C       -9.6406970000    2.2554330000    3.8273180000
C       -9.7435110000    0.8522560000    4.0456390000
O       -9.4788420000    0.2282530000    5.0779120000
N      -10.2037330000    0.1775440000    2.9262190000
C      -10.5231170000    0.7656450000    1.7323980000
N      -11.0665050000    0.0012520000    0.7858900000
N      -10.3980890000    2.0621300000    1.5069860000
C       -9.9403020000    2.7551020000    2.5565610000
H      -10.6805610000   -6.4396250000    3.2829760000
H       -9.9497910000   -5.1929870000    5.3267820000
H       -9.6035220000   -1.5322040000    5.2776690000
H       -9.4547760000   -2.9998350000    6.2129750000
H       -9.0628110000    5.3379980000    4.2293280000
H      -10.2601690000   -0.8644130000    2.9998960000
H      -10.9856070000   -1.0163550000    0.8449910000
H      -11.1346760000    0.4189230000   -0.1269410000
O       11.0000900000    8.9254550000   -0.2224400000
O        4.6330740000    8.6834710000   -2.4795470000
O       -5.9021470000    5.2284390000   -6.6593150000
O       -9.0414610000   -1.7164460000   -7.3046530000
O      -11.0080630000   -8.3806220000   -3.6094130000
O       -7.0041980000    9.0086500000    5.1776010000
O       -4.4394310000    5.6271510000    7.9437780000
O       -0.7763990000    0.7735650000    9.1434240000
O        4.3221550000   -0.5733990000    9.3383280000
H        4.7655740000    0.0105270000    9.9682000000
O       -0.3992470000   -1.4838420000    4.9492070000
C       -0.8603950000   -2.6015270000    4.1957540000
C       -1.0591150000   -2.2163180000    2.7631350000
H       -1.8289560000   -2.9121710000    4.6099360000
H       -0.1422770000   -3.4205460000    4.2982460000
C       -0.8792290000   -0.8986770000    2.3627800000
C       -1.4753990000   -3.1414890000    1.8068550000
C       -1.1232220000   -0.5357250000    1.0458910000
H       -0.5770180000   -0.1710520000    3.0959060000
C       -1.6922730000   -2.7071820000    0.5118740000
H       -1.6334510000   -4.1731810000    2.0714510000
C       -1.0452960000    0.8482320000    0.5738750000
N       -1.5151930000   -1.4446000000    0.1446500000
H       -2.0110210000   -3.3813340000   -0.2681800000
C       -0.5377010000    1.8877630000    1.3412020000
N       -1.5452260000    1.0694790000   -0.6497900000
Cu      -1.8943380000   -0.6008700000   -1.6672060000
C       -0.5653750000    3.1902730000    0.8561030000
H       -0.1191270000    1.6909330000    2.3139810000
C       -1.6029510000    2.3080820000   -1.1115960000
C       -1.1329980000    3.3939990000   -0.4000320000
C        0.0004630000    4.3154950000    1.6468170000
H       -2.0584570000    2.4336960000   -2.0807340000
H       -1.2040880000    4.3847890000   -0.8172930000
H        0.0268590000    4.0671300000    2.7041080000
H        1.0218410000    4.5062410000    1.3166920000
H       -0.5762820000    5.2234430000    1.4973120000
C        1.0880500000   -0.9051720000    6.5200900000
H        0.6375240000    0.0883140000    6.5389480000
O        5.3316550000   -6.3311170000    5.5434810000
O        6.2814610000   -9.2399770000   -1.3406900000
H        5.9053660000  -10.1173620000   -1.1882600000
H        4.8043110000   -7.0755800000    5.8587050000
H       -7.5170110000    9.7633850000    5.4947050000
H      -11.1786040000   -9.3289830000   -3.5918480000
H       -9.3265660000   -2.3796780000   -7.9448530000
H       11.3985660000    9.7433210000   -0.5453620000
H       -4.7170230000    6.1723400000    8.6915680000
H       -6.2240750000    5.1088020000   -7.5598180000
H        4.4946260000    9.6198800000   -2.6728810000
O        1.4034110000    7.3018030000   -5.3419460000
N       -5.5496640000    0.2144600000   -2.3084950000
C       -4.9941430000    0.5533850000   -1.0633900000
O       -4.7713020000    1.7419740000   -0.8194240000
N       -4.6977160000   -0.4243370000   -0.2049710000
C       -4.8980170000   -1.7101910000   -0.5078630000
N       -4.6380590000   -2.6300060000    0.4006490000
C       -5.3826430000   -2.0811180000   -1.8011900000
C       -5.7270020000   -1.0861490000   -2.6436550000
N       -2.4598830000    1.3613050000    5.9246810000
C       -2.5621930000    0.1228050000    6.5098880000
N       -3.0596800000   -0.7746180000    5.7198590000
C       -3.3033700000   -0.1230750000    4.5303800000
C       -3.7710020000   -0.5809130000    3.2675410000
O       -4.0598030000   -1.7319210000    2.9379250000
N       -3.8474910000    0.4432030000    2.3297570000
C       -3.5403910000    1.7532770000    2.5754630000
N       -3.6640670000    2.6315860000    1.5759360000
N       -3.0470940000    2.1742640000    3.7254550000
C       -2.9381490000    1.2164390000    4.6567790000
H       -6.1666710000   -1.2594800000   -3.6145270000
H       -5.4889360000   -3.1167740000   -2.0661550000
H       -4.3938580000   -2.3537110000    1.3556610000
H       -4.7762190000   -3.6013820000    0.1786640000
H       -2.2242910000   -0.0504070000    7.5131240000
H       -4.1908060000    0.1682010000    1.3783240000
H       -4.1584860000    2.3566320000    0.7244790000
H       -3.6896020000    3.6037690000    1.8478670000
O        5.0495280000   -5.3551840000    8.9591640000
H        4.6748500000   -5.9987870000    9.5737200000
O        1.2904400000   -2.4722510000   -0.8599410000
O        0.7780730000   -3.4313340000   -5.5786580000
O        0.4878730000   -4.5829730000   -0.8124510000
O        0.3985040000   -1.2494350000   -5.1361710000
N        0.2512720000   -3.3274190000   -2.6873120000
N        0.9739100000   -2.6903430000   -3.4821200000
C        0.2639520000   -4.4856720000   -7.6630720000
C        1.7683850000   -2.5909270000    0.4789100000
C        0.7235910000   -3.2161180000   -7.0008580000
C        0.7598640000   -5.7092450000   -7.2294260000
C       -0.6271890000   -4.4448580000   -8.7271380000
C        0.3687660000   -6.8789420000   -7.8566600000
C       -1.0075230000   -5.6163880000   -9.3605110000
C       -0.5114940000   -6.8342260000   -8.9259000000
C        0.7173570000   -3.5458990000   -1.3804390000
C        0.6326730000   -2.3884140000   -4.7884110000
H        2.6898500000   -3.1881280000    0.4583700000
H        1.0315810000   -3.1320550000    1.0818110000
H        1.7330130000   -2.9520630000   -7.3381310000
H        0.0616410000   -2.3715420000   -7.2131270000
H        1.4512400000   -5.7346470000   -6.4018350000
H       -1.0065670000   -3.4962870000   -9.0763770000
H        0.7609820000   -7.8251830000   -7.5180610000
H       -1.6894590000   -5.5765050000  -10.1957110000
H       -0.8056710000   -7.7456610000   -9.4227810000
C        2.0722860000   -1.2427510000    1.0617520000
C        2.3379000000   -1.1467790000    2.4240140000
C        2.1481030000   -0.1036580000    0.2736520000
C        2.6956390000    0.0665940000    2.9807960000
H        2.2755080000   -2.0266300000    3.0456880000
C        2.5178990000    1.1093350000    0.8301540000
H        1.9238930000   -0.1670240000   -0.7790550000
C        2.7971530000    1.1961160000    2.1830630000
H        2.8984610000    0.1301330000    4.0398360000
H        2.5995060000    1.9852010000    0.2016910000
H        3.0933120000    2.1380380000    2.6169890000
O       -2.5114200000   -2.3569340000   -2.4800760000
N       -2.6718950000   -0.6020740000   -5.6271700000
N       -1.9351070000   -0.0455390000   -3.6232870000
C       -2.2264560000   -4.7492690000   -3.9467890000
C       -2.4603950000   -3.5473370000   -4.5170870000
C       -2.5201600000   -2.3483710000   -3.7366000000
C       -2.0475660000   -5.9973900000   -4.6920390000
C       -2.2790660000    0.6893870000   -5.6769280000
C       -2.4482500000   -1.0387170000   -4.3685890000
C       -1.8119580000    1.0252130000   -4.4279750000
H       -2.5245380000   -3.4687180000   -5.5882050000
H       -1.0539700000   -6.3945950000   -4.4819030000
H       -2.1640320000   -5.8650930000   -5.7632340000
H       -2.7516880000   -6.7454390000   -4.3250110000
H       -2.3694400000    1.2928140000   -6.5576730000
H       -1.3658070000    1.9461240000   -4.1117840000
C       -3.2822610000   -1.3040530000   -6.7257230000
H       -3.6739320000   -0.5693940000   -7.4264060000
H       -2.5423090000   -1.9140380000   -7.2449980000
H       -4.0964610000   -1.9366410000   -6.3749280000
H       -2.1337140000   -4.8008510000   -2.8709210000
N       -6.7046740000   -7.6643810000   -3.6938410000
C       -5.7694900000   -8.6655020000   -3.6628830000
C       -4.8345270000   -8.4216450000   -4.7005460000
C       -5.2639730000   -7.2353530000   -5.3528430000
C       -5.6573820000   -9.7491900000   -2.8066220000
C       -3.7630600000   -9.3031670000   -4.8767450000
C       -6.4111290000   -6.8233120000   -4.7134030000
C       -4.5854110000  -10.6061970000   -3.0053350000
C       -3.6582830000  -10.3857400000   -4.0257740000
H       -7.5474160000   -7.6762800000   -3.1365550000
H       -4.7985790000   -6.7574520000   -6.1894740000
H       -6.3786180000   -9.9058170000   -2.0153720000
H       -3.0432070000   -9.1426750000   -5.6650290000
H       -7.0187040000   -5.9639780000   -4.9275720000
H       -4.4664400000  -11.4621090000   -2.3589740000
H       -2.8402850000  -11.0797980000   -4.1440930000
