89
RR_T4_from_lowest_opt_c4.xyz    Empirical formula: C34H48Cl2N2O2Ti    Energy(Hartree): -3353.414134    
O       -1.4936410000   -0.9592890000    0.2855980000
O        1.4933720000   -0.9595020000   -0.2817620000
N       -1.2996130000    1.7702780000    0.3446750000
N        1.2991530000    1.7701830000   -0.3429790000
C       -0.5846300000    3.0382790000    0.5080670000
C        0.5841060000    3.0381550000   -0.5066130000
C       -1.4290430000    4.3069000000    0.3918720000
C        1.4285620000    4.3067840000   -0.3906160000
C       -0.5627580000    5.5629630000    0.5177910000
C        0.5623520000    5.5629040000   -0.5164940000
C       -3.0349470000   -3.3431950000   -0.0699320000
C        3.0354250000   -3.3431380000    0.0722510000
C       -7.1530250000   -0.3707090000   -0.0318840000
C        7.1532170000   -0.3703880000    0.0262960000
C       -3.6310310000   -1.9503350000    0.0487350000
C        3.6312060000   -1.9502760000   -0.0479880000
C       -5.6239540000   -0.4819000000    0.0480370000
C        5.6240290000   -0.4817150000   -0.0511710000
C       -2.5841600000    1.6875490000    0.3715390000
C        2.5836620000    1.6873990000   -0.3713520000
C       -3.3804810000    0.4822690000    0.2432260000
C        3.3801870000    0.4822080000   -0.2434330000
C       -5.0079100000   -1.7508490000   -0.0199600000
C        5.0081740000   -1.7506690000    0.0184410000
C       -2.8023120000   -0.8120150000    0.1942050000
C        2.8021660000   -0.8120800000   -0.1927350000
C       -4.7847080000    0.6184010000    0.1802560000
C        4.7845040000    0.6184530000   -0.1826930000
C       -2.2046920000   -3.4897200000   -1.3573110000
C       -2.2350170000   -3.7573900000    1.1760390000
C        2.2071700000   -3.4891250000    1.3609920000
C        2.2336350000   -3.7580650000   -1.1722740000
C       -7.6294570000    1.0866250000    0.0626000000
C       -7.7841830000   -1.1640640000    1.1316170000
C       -7.6374760000   -0.9535740000   -1.3762440000
C        7.6398160000   -0.9525730000    1.3701750000
C        7.6294220000    1.0869260000   -0.0696470000
C        7.7825970000   -1.1642720000   -1.1378060000
H       -0.1297420000    2.9923060000    1.5133630000
H        0.1292210000    2.9919920000   -1.5119060000
H       -2.2069420000    4.3154610000    1.1711830000
H       -1.9466600000    4.3103590000   -0.5838810000
H        2.2063440000    4.3153240000   -1.1700400000
H        1.9463250000    4.3102140000    0.5850580000
H       -1.1905770000    6.4613170000    0.4074940000
H       -0.1276690000    5.6055740000    1.5320150000
H        1.1902570000    6.4612010000   -0.4062150000
H        0.1272510000    5.6055580000   -1.5307120000
H       -3.1761040000    2.6039630000    0.4987830000
H        3.1754560000    2.6037340000   -0.4998530000
H       -5.6346110000   -2.6386280000   -0.1364780000
H        5.6351180000   -2.6383510000    0.1344010000
H       -5.1968300000    1.6266300000    0.2308690000
H        5.1964840000    1.6266770000   -0.2345340000
H       -1.8159750000   -4.5168320000   -1.4482720000
H       -2.8158990000   -3.2738290000   -2.2471780000
H       -1.3517880000   -2.7970380000   -1.3645660000
H       -2.8450820000   -3.6639350000    2.0882040000
H       -1.9131550000   -4.8075960000    1.0875730000
H       -1.3392650000   -3.1339600000    1.3004840000
H        1.3542960000   -2.7964120000    1.3692810000
H        2.8197880000   -3.2729300000    2.2498150000
H        1.8185510000   -4.5161860000    1.4529690000
H        1.9122580000   -4.8083400000   -1.0828790000
H        2.8421890000   -3.6647660000   -2.0854640000
H        1.3374820000   -3.1349900000   -1.2955460000
H       -7.3316590000    1.5523670000    1.0148460000
H       -8.7280730000    1.1243110000    0.0040630000
H       -7.2323040000    1.7001290000   -0.7608840000
H       -7.4535910000   -0.7643030000    2.1029680000
H       -7.5091990000   -2.2288070000    1.0962760000
H       -8.8836690000   -1.1008880000    1.0895460000
H       -7.3593900000   -2.0124230000   -1.4860300000
H       -7.1989850000   -0.4022680000   -2.2225650000
H       -8.7348860000   -0.8861670000   -1.4524910000
H        8.7373420000   -0.8850820000    1.4446540000
H        7.2026410000   -0.4008710000    2.2169190000
H        7.3619480000   -2.0113790000    1.4809180000
H        8.7281250000    1.1247020000   -0.0128190000
H        7.3301360000    1.5521730000   -1.0216680000
H        7.2335020000    1.7008220000    0.7541380000
H        7.4504440000   -0.7650140000   -2.1088310000
H        8.8821430000   -1.1009940000   -1.0975000000
H        7.5077510000   -2.2290180000   -1.1015050000
Ti      -0.0000900000    0.0693120000    0.0017050000
Cl       0.5728030000    0.3672930000    2.2440820000
Cl      -0.5727440000    0.3655460000   -2.2411000000
H       -3.8917930000   -4.0343110000   -0.1516860000
H        3.8924690000   -4.0341220000    0.1530200000
