89
RR_T4_from_lowest_opt_c11.xyz    Empirical formula: C34H48Cl2N2O2Ti    Energy(Hartree): -3353.412765    
O        1.4913240000   -0.9858850000   -0.2837460000
O       -1.4912320000   -0.9860450000    0.2819510000
N        1.2999350000    1.7458980000   -0.3451720000
N       -1.2997110000    1.7458160000    0.3445580000
C        0.5841340000    3.0136070000   -0.5080220000
C       -0.5838840000    3.0134900000    0.5076240000
C        1.4284270000    4.2823910000   -0.3928680000
C       -1.4281700000    4.2823070000    0.3927820000
C        0.5620190000    5.5384540000   -0.5177700000
C       -0.5617560000    5.5383410000    0.5179570000
C        3.0349530000   -3.3677320000    0.0780810000
C       -3.0352410000   -3.3677670000   -0.0786510000
C        7.1459560000   -0.3139290000    0.0287740000
C       -7.1460350000   -0.3137250000   -0.0267830000
C        3.6291670000   -1.9741730000   -0.0436430000
C       -3.6292950000   -1.9741660000    0.0433540000
C        5.6237230000   -0.5124670000   -0.0445040000
C       -5.6237680000   -0.5123520000    0.0455410000
C        2.5836740000    1.6634420000   -0.3738540000
C       -2.5834490000    1.6633800000    0.3734150000
C        3.3796280000    0.4565550000   -0.2441330000
C       -3.3794860000    0.4565390000    0.2438410000
C        5.0112980000   -1.7778800000    0.0260160000
C       -5.0114550000   -1.7777990000   -0.0254090000
C        2.8014240000   -0.8406290000   -0.1921160000
C       -2.8013770000   -0.8406710000    0.1913170000
C        4.7794210000    0.5890550000   -0.1807110000
C       -4.7793180000    0.5891080000    0.1812770000
C        2.2048970000   -3.5127140000    1.3658130000
C        2.2349680000   -3.7860850000   -1.1664850000
C       -2.2057060000   -3.5128850000   -1.3667000000
C       -2.2347930000   -3.7861320000    1.1656170000
C        7.6336140000    0.3755400000   -1.2627360000
C        7.8961830000   -1.6465630000    0.1764050000
C        7.4873670000    0.5712840000    1.2458250000
C       -7.6328590000    0.3756840000    1.2650750000
C       -7.8964310000   -1.6463050000   -0.1740450000
C       -7.4881410000    0.5715940000   -1.2435600000
H        0.1286730000    2.9665620000   -1.5129640000
H       -0.1283940000    2.9662140000    1.5125450000
H        2.2053470000    4.2909370000   -1.1731630000
H        1.9471850000    4.2859190000    0.5822830000
H       -2.2050750000    4.2906790000    1.1730940000
H       -1.9469450000    4.2860620000   -0.5823590000
H        1.1900110000    6.4367710000   -0.4082380000
H        0.1256700000    5.5810740000   -1.5314440000
H       -1.1897460000    6.4366830000    0.4086210000
H       -0.1254050000    5.5807400000    1.5316390000
H        3.1763630000    2.5791490000   -0.5030130000
H       -3.1760890000    2.5790870000    0.5027890000
H        5.6297880000   -2.6680540000    0.1444610000
H       -5.6300670000   -2.6679370000   -0.1434770000
H        5.1987950000    1.5968140000   -0.2326770000
H       -5.1986060000    1.5968860000    0.2335870000
H        1.8176090000   -4.5401730000    1.4592610000
H        2.8156380000   -3.2937540000    2.2552560000
H        1.3509870000   -2.8212170000    1.3712570000
H        1.3379250000   -3.1646020000   -1.2914790000
H        2.8441080000   -3.6932320000   -2.0793380000
H        1.9150930000   -4.8367260000   -1.0757510000
H       -2.8167080000   -3.2936760000   -2.2559040000
H       -1.8187740000   -4.5404570000   -1.4603640000
H       -1.3515830000   -2.8216530000   -1.3723910000
H       -1.3377730000   -3.1645600000    1.2903480000
H       -1.9148320000   -4.8367320000    1.0747120000
H       -2.8436380000   -3.6934020000    2.0786800000
H        7.1623040000    1.3601350000   -1.4024930000
H        7.3984780000   -0.2373810000   -2.1467780000
H        8.7245990000    0.5286550000   -1.2304220000
H        7.7103850000   -2.3170270000   -0.6766870000
H        7.6113120000   -2.1762260000    1.0983680000
H        8.9801090000   -1.4596570000    0.2223390000
H        7.1440080000    0.1013090000    2.1804810000
H        7.0133730000    1.5619500000    1.1755030000
H        8.5763030000    0.7256970000    1.3176370000
H       -7.3972070000   -0.2373070000    2.1489300000
H       -7.1614130000    1.3602460000    1.4046040000
H       -8.7238550000    0.5288580000    1.2334430000
H       -7.6121430000   -2.1759300000   -1.0962100000
H       -7.7101650000   -2.3168320000    0.6788950000
H       -8.9803730000   -1.4593300000   -0.2193200000
H       -7.0140320000    1.5622220000   -1.1734640000
H       -7.1453970000    0.1016600000   -2.1784620000
H       -8.5771100000    0.7260890000   -1.3146840000
Ti       0.0000270000    0.0423270000   -0.0007680000
Cl      -0.5737420000    0.3476370000   -2.2429530000
Cl       0.5737770000    0.3466220000    2.2416440000
H        3.8925200000   -4.0577650000    0.1611740000
H       -3.8928970000   -4.0577330000   -0.1613840000
