89
RR_T4_from_lowest_opt_c6.xyz    Empirical formula: C34H48Cl2N2O2Ti    Energy(Hartree): -3353.413450    
O        1.4991780000   -0.9621520000   -0.2810140000
O       -1.4856060000   -0.9833350000    0.2855750000
N        1.2849360000    1.7667050000   -0.3434490000
N       -1.3140860000    1.7490930000    0.3455330000
C        0.5607310000    3.0294010000   -0.5073810000
C       -0.6074850000    3.0220110000    0.5079540000
C        1.3960600000    4.3041590000   -0.3924330000
C       -1.4608410000    4.2846250000    0.3921230000
C        0.5209240000    5.5540460000   -0.5184470000
C       -0.6033070000    5.5468060000    0.5167740000
C        3.0590820000   -3.3337530000    0.0748140000
C       -3.0113220000   -3.3770090000   -0.0747240000
C        7.1546010000   -0.3305560000    0.0257710000
C       -7.1447730000   -0.3534070000   -0.0310300000
C        3.6443930000   -1.9365580000   -0.0466330000
C       -3.6159520000   -1.9878040000    0.0453600000
C        5.6262600000   -0.4532660000   -0.0512030000
C       -5.6211820000   -0.5407550000    0.0436120000
C        2.5699840000    1.6932380000   -0.3719560000
C       -2.5972560000    1.6574540000    0.3732290000
C        3.3752500000    0.4938520000   -0.2436130000
C       -3.3844150000    0.4448630000    0.2437970000
C        5.0198500000   -1.7267040000    0.0194200000
C       -4.9994350000   -1.8017260000   -0.0253370000
C        2.8068540000   -0.8046660000   -0.1920740000
C       -2.7966420000   -0.8480580000    0.1932310000
C        4.7785410000    0.6405300000   -0.1832080000
C       -4.7850980000    0.5670530000    0.1793810000
C        2.2324020000   -3.4849720000    1.3639630000
C        2.2599180000   -3.7557360000   -1.1690280000
C       -2.1793630000   -3.5169050000   -1.3617980000
C       -2.2090330000   -3.7881710000    1.1707540000
C        7.7895130000   -1.1205290000   -1.1379930000
C        7.6458710000   -0.9082440000    1.3698890000
C        7.6199780000    1.1301750000   -0.0712730000
C       -7.4916360000    0.5277660000   -1.2494750000
C       -7.6384650000    0.3341260000    1.2592150000
C       -7.8851670000   -1.6916470000   -0.1775260000
H        0.1057190000    2.9794510000   -1.5124260000
H       -0.1518500000    2.9786840000    1.5129930000
H        2.1733110000    4.3177600000   -1.1723010000
H        1.9143390000    4.3118230000    0.5829390000
H       -2.2380620000    4.2879870000    1.1721770000
H       -1.9792910000    4.2841370000   -0.5832010000
H        1.1425440000    6.4568220000   -0.4091870000
H        0.0847070000    5.5930250000   -1.5323300000
H       -1.2375350000    6.4406490000    0.4065320000
H       -0.1677290000    5.5929700000    1.5306250000
H        3.1552100000    2.6137280000   -0.5009100000
H       -3.1964730000    2.5690370000    0.5013300000
H        5.6533880000   -2.6096270000    0.1358790000
H       -5.6113270000   -2.6965100000   -0.1433560000
H        5.1829690000    1.6517710000   -0.2357350000
H       -5.2119010000    1.5717450000    0.2301760000
H        1.8518400000   -4.5149420000    1.4570240000
H        2.8435660000   -3.2631360000    2.2524020000
H        1.3741150000   -2.7989730000    1.3718050000
H        2.8671820000   -3.6581480000   -2.0826310000
H        1.9469700000   -4.8084790000   -1.0788110000
H        1.3587350000   -3.1399300000   -1.2921190000
H       -1.3308490000   -2.8187950000   -1.3674460000
H       -2.7912200000   -3.3035350000   -2.2518300000
H       -1.7841190000   -4.5414460000   -1.4539880000
H       -1.8809100000   -4.8363600000    1.0810950000
H       -2.8195760000   -3.6993580000    2.0830720000
H       -1.3169930000   -3.1595620000    1.2959680000
H        8.8885730000   -1.0490880000   -1.0980500000
H        7.4541310000   -0.7243820000   -2.1091820000
H        7.5225530000   -2.1872510000   -1.1009050000
H        7.3758550000   -1.9689990000    1.4814010000
H        7.2048700000   -0.3592260000    2.2163950000
H        8.7428910000   -0.8325910000    1.4440050000
H        7.2198450000    1.7416560000    0.7522730000
H        7.3168840000    1.5925740000   -1.0234760000
H        8.7183950000    1.1761190000   -0.0148990000
H       -7.1441800000    0.0590810000   -2.1832630000
H       -8.5815990000    0.6742510000   -1.3223140000
H       -7.0248160000    1.5219000000   -1.1800620000
H       -8.7305030000    0.4792910000    1.2258170000
H       -7.3996340000   -0.2759750000    2.1442170000
H       -7.1744430000    1.3222960000    1.3981410000
H       -7.6950250000   -2.3596920000    0.6765060000
H       -8.9703970000   -1.5127030000   -0.2243840000
H       -7.5958590000   -2.2203360000   -1.0986650000
Ti      -0.0015950000    0.0557020000    0.0023420000
Cl      -0.5782460000    0.3510260000   -2.2402610000
Cl       0.5685710000    0.3621540000    2.2445620000
H        3.9213340000   -4.0182040000    0.1557890000
H       -3.8636270000   -4.0735410000   -0.1577290000
