89
RR_T4_from_lowest_opt_c13.xyz    Empirical formula: C34H48Cl2N2O2Ti    Energy(Hartree): -3353.414412    
O        1.4752080000   -0.9005950000   -0.4478620000
O       -1.5098140000   -0.9792970000    0.1440370000
N        1.2277780000    1.8277830000   -0.3833460000
N       -1.3639240000    1.7488270000    0.3228130000
C        0.4864080000    3.0848330000   -0.5015210000
C       -0.6731380000    3.0257040000    0.5217030000
C        1.3044780000    4.3666380000   -0.3498170000
C       -1.5452150000    4.2794140000    0.4540110000
C        0.4105000000    5.6065720000   -0.4321130000
C       -0.7057470000    5.5502350000    0.6102910000
C        2.9581710000   -3.2170610000   -0.0727160000
C       -3.0204840000   -3.3842420000   -0.1955010000
C        7.1032430000   -0.2264290000    0.0942470000
C       -7.1874580000   -0.4933990000    0.0772860000
C        3.6152340000   -1.8511370000   -0.1514540000
C       -3.6365560000   -2.0058490000   -0.0237490000
C        5.5795210000   -0.3568030000   -0.0417520000
C       -5.6546500000   -0.5772180000    0.0943550000
C        2.5144160000    1.7749160000   -0.3946120000
C       -2.6455990000    1.6396930000    0.3767560000
C        3.3303580000    0.5819090000   -0.2885770000
C       -3.4231900000    0.4245390000    0.2305190000
C        4.9849530000   -1.6392570000   -0.0297190000
C       -5.0185190000   -1.8317460000   -0.0314880000
C        2.7754380000   -0.7211280000   -0.3001890000
C       -2.8233210000   -0.8555320000    0.1161790000
C        4.7300510000    0.7354430000   -0.1720150000
C       -4.8310870000    0.5349100000    0.2257810000
C        3.8953600000   -4.3773970000   -0.4107990000
C        2.3112680000   -3.4076390000    1.3127180000
C       -2.2413710000   -3.4900240000   -1.5181370000
C       -2.1621180000   -3.8058510000    1.0087050000
C        7.5499690000   -0.8405270000    1.4378250000
C        7.5615680000    1.2392270000    0.0570870000
C        7.7855760000   -0.9780440000   -1.0681170000
C       -7.7142600000   -1.0527580000   -1.2611220000
C       -7.6861150000    0.9518500000    0.2265640000
C       -7.7575560000   -1.3265470000    1.2444910000
H        0.0246440000    3.0625990000   -1.5043150000
H       -0.2082340000    2.9563810000    1.5212530000
H        2.0778010000    4.4151910000   -1.1322960000
H        1.8272380000    4.3519810000    0.6230900000
H       -2.3148300000    4.2477480000    1.2408420000
H       -2.0730690000    4.3008350000   -0.5159830000
H        1.0192600000    6.5149450000   -0.2993470000
H       -0.0335860000    5.6697750000   -1.4413300000
H       -1.3545870000    6.4369410000    0.5319590000
H       -0.2631340000    5.5726470000    1.6219310000
H        3.0881660000    2.7076330000   -0.4797260000
H       -3.2512050000    2.5391480000    0.5513690000
H        5.6292790000   -2.5119050000    0.0828510000
H       -5.6328350000   -2.7285590000   -0.1447550000
H        5.1286980000    1.7503280000   -0.1772090000
H       -5.2593110000    1.5328710000    0.3238220000
H        3.3326350000   -5.3233400000   -0.4372040000
H        4.3779750000   -4.2411380000   -1.3914230000
H        4.6886870000   -4.4957680000    0.3457440000
H        1.6442840000   -2.5709460000    1.5646390000
H        1.7240930000   -4.3397850000    1.3425030000
H        3.0874200000   -3.4665760000    2.0936320000
H       -2.8908970000   -3.2620420000   -2.3774350000
H       -1.8455670000   -4.5102360000   -1.6488910000
H       -1.3974490000   -2.7865390000   -1.5422950000
H       -2.7369950000   -3.7444540000    1.9461120000
H       -1.2757230000   -3.1649930000    1.1111030000
H       -1.8224300000   -4.8470040000    0.8855710000
H        7.2849310000   -1.9060960000    1.5077360000
H        7.0735810000   -0.3204660000    2.2834350000
H        8.6428820000   -0.7593690000    1.5545960000
H        8.6569180000    1.2901710000    0.1543740000
H        7.1277700000    1.8235010000    0.8833340000
H        7.2894220000    1.7279030000   -0.8913290000
H        7.5250840000   -2.0470340000   -1.0717410000
H        8.8819620000   -0.9012000000   -0.9862540000
H        7.4826480000   -0.5557240000   -2.0389460000
H       -8.8148650000   -1.0043270000   -1.2925100000
H       -7.3197690000   -0.4729990000   -2.1100820000
H       -7.4217930000   -2.1031950000   -1.4080020000
H       -8.7866660000    0.9700870000    0.2107060000
H       -7.3605770000    1.3996570000    1.1783260000
H       -7.3318830000    1.5928040000   -0.5955890000
H       -8.8588000000   -1.2829200000    1.2473780000
H       -7.4653940000   -2.3847820000    1.1716120000
H       -7.3956510000   -0.9444590000    2.2117820000
Ti      -0.0391950000    0.0864300000   -0.1173310000
Cl      -0.6436610000    0.4794900000   -2.3324910000
Cl       0.5435140000    0.2891880000    2.1401630000
H        2.1408520000   -3.2071380000   -0.8127640000
H       -3.8670620000   -4.0900630000   -0.2558100000
