89
RR_T4_from_lowest_opt_c12.xyz    Empirical formula: C34H48Cl2N2O2Ti    Energy(Hartree): -3353.412765    
O       -1.4913570000   -0.9859550000    0.2837090000
O        1.4912330000   -0.9859810000   -0.2819230000
N       -1.2999050000    1.7458230000    0.3453970000
N        1.2997190000    1.7458210000   -0.3444460000
C       -0.5840990000    3.0135120000    0.5083110000
C        0.5838580000    3.0135010000   -0.5074050000
C       -1.4283880000    4.2823090000    0.3933960000
C        1.4281470000    4.2823120000   -0.3924400000
C       -0.5619510000    5.5383310000    0.5184960000
C        0.5617390000    5.5383760000   -0.5173210000
C       -3.0350470000   -3.3677850000   -0.0778760000
C        3.0352110000   -3.3676910000    0.0791650000
C       -7.1459600000   -0.3138480000   -0.0292250000
C        7.1460630000   -0.3137490000    0.0262610000
C       -3.6292230000   -1.9741930000    0.0436150000
C        3.6292880000   -1.9741390000   -0.0432700000
C       -5.6237390000   -0.5124290000    0.0442230000
C        5.6237880000   -0.5123620000   -0.0459060000
C       -2.5836580000    1.6634250000    0.3736350000
C        2.5834420000    1.6633720000   -0.3737320000
C       -3.3796230000    0.4565530000    0.2438890000
C        3.3795140000    0.4565370000   -0.2441890000
C       -5.0113470000   -1.7778660000   -0.0261290000
C        5.0114640000   -1.7777790000    0.0253460000
C       -2.8014580000   -0.8406560000    0.1920110000
C        2.8014000000   -0.8406560000   -0.1914030000
C       -4.7794110000    0.5890840000    0.1803650000
C        4.7793470000    0.5890990000   -0.1817890000
C       -2.2046280000   -3.5129430000   -1.3653500000
C       -2.2354220000   -3.7860370000    1.1669560000
C        2.2060140000   -3.5123880000    1.3674840000
C        2.2344180000   -3.7863520000   -1.1647700000
C       -7.8962550000   -1.6464950000   -0.1763760000
C       -7.4872130000    0.5709040000   -1.2466590000
C       -7.6337020000    0.3761600000    1.2619620000
C        7.4882870000    0.5716930000    1.2429200000
C        7.6327950000    0.3755120000   -1.2657080000
C        7.8964490000   -1.6463250000    0.1736030000
H       -0.1285560000    2.9663400000    1.5132130000
H        0.1283350000    2.9663260000   -1.5123160000
H       -2.2052940000    4.2907040000    1.1737070000
H       -1.9471660000    4.2860400000   -0.5817450000
H        2.2049680000    4.2908350000   -1.1728310000
H        1.9470300000    4.2858820000    0.5826440000
H       -1.1899270000    6.4366830000    0.4091750000
H       -0.1255260000    5.5807480000    1.5321460000
H        1.1897570000    6.4366860000   -0.4078870000
H        0.1253020000    5.5809590000   -1.5309600000
H       -3.1763530000    2.5791720000    0.5024830000
H        3.1760560000    2.5790540000   -0.5034050000
H       -5.6298540000   -2.6680360000   -0.1445090000
H        5.6300720000   -2.6679050000    0.1435360000
H       -5.1987630000    1.5968600000    0.2321880000
H        5.1986560000    1.5968560000   -0.2343140000
H       -1.8176480000   -4.5405210000   -1.4587290000
H       -2.8150080000   -3.2937230000   -2.2549770000
H       -1.3504970000   -2.8217200000   -1.3704750000
H       -1.9153340000   -4.8366230000    1.0763220000
H       -1.3385260000   -3.1644000000    1.2922630000
H       -2.8449010000   -3.6933040000    2.0795940000
H        1.3521170000   -2.8208750000    1.3733510000
H        2.8173680000   -3.2932570000    2.2564640000
H        1.8187730000   -4.5398220000    1.4614120000
H        1.9146560000   -4.8369890000   -1.0735900000
H        2.8429500000   -3.6936740000   -2.0780460000
H        1.3372590000   -3.1649500000   -1.2893200000
H       -7.7104430000   -2.3166750000    0.6769360000
H       -7.6114570000   -2.1764880000   -1.0981700000
H       -8.9801750000   -1.4595570000   -0.2223340000
H       -7.0131250000    1.5615500000   -1.1766890000
H       -8.5761300000    0.7253830000   -1.3186190000
H       -7.1438200000    0.1005250000   -2.1810990000
H       -7.1623940000    1.3608030000    1.4013690000
H       -7.3986650000   -0.2364090000    2.1462730000
H       -8.7246780000    0.5292900000    1.2294840000
H        8.5772640000    0.7261790000    1.3139330000
H        7.0141850000    1.5623180000    1.1727620000
H        7.1456180000    0.1018580000    2.1778980000
H        8.7237950000    0.5286750000   -1.2341750000
H        7.3970720000   -0.2375720000   -2.1494800000
H        7.1613560000    1.3600650000   -1.4053130000
H        8.9804000000   -1.4593690000    0.2187370000
H        7.6122510000   -2.1758340000    1.0958610000
H        7.7100730000   -2.3169510000   -0.6792360000
Ti      -0.0000470000    0.0422780000    0.0008040000
Cl       0.5738500000    0.3474610000    2.2430130000
Cl      -0.5737660000    0.3467900000   -2.2415670000
H       -3.8926210000   -4.0577880000   -0.1611560000
H        3.8928550000   -4.0576760000    0.1618510000
