89
RR_T4_from_lowest_opt_c7.xyz    Empirical formula: C34H48Cl2N2O2Ti    Energy(Hartree): -3353.413450    
O       -1.4992020000   -0.9621660000    0.2811160000
O        1.4855970000   -0.9832960000   -0.2854360000
N       -1.2849420000    1.7666800000    0.3436060000
N        1.3140840000    1.7490980000   -0.3453980000
C       -0.5607380000    3.0293650000    0.5075570000
C        0.6074620000    3.0220130000   -0.5077960000
C       -1.3960650000    4.3041270000    0.3926880000
C        1.4608220000    4.2846220000   -0.3918940000
C       -0.5209160000    5.5539930000    0.5188130000
C        0.6032950000    5.5468180000   -0.5164300000
C       -3.0590970000   -3.3337680000   -0.0746770000
C        3.0113000000   -3.3769660000    0.0750610000
C       -7.1545970000   -0.3305390000   -0.0261710000
C        7.1447910000   -0.3534230000    0.0306090000
C       -3.6444070000   -1.9365600000    0.0465990000
C        3.6159430000   -1.9877860000   -0.0452430000
C       -5.6262630000   -0.4532530000    0.0509470000
C        5.6211910000   -0.5407610000   -0.0438400000
C       -2.5699950000    1.6932410000    0.3718630000
C        2.5972410000    1.6574470000   -0.3733910000
C       -3.3752600000    0.4938570000    0.2434930000
C        3.3844250000    0.4448620000   -0.2439610000
C       -5.0198570000   -1.7266990000   -0.0195700000
C        4.9994380000   -1.8017140000    0.0253190000
C       -2.8068770000   -0.8046680000    0.1920570000
C        2.7966500000   -0.8480470000   -0.1931980000
C       -4.7785460000    0.6405450000    0.1829630000
C        4.7851110000    0.5670470000   -0.1796870000
C       -2.2320800000   -3.4850970000   -1.3635960000
C       -2.2602440000   -3.7556930000    1.1693890000
C        2.1794810000   -3.5166830000    1.3622480000
C        2.2088600000   -3.7882610000   -1.1702740000
C       -7.6457320000   -0.9082400000   -1.3703310000
C       -7.6199860000    1.1301920000    0.0708230000
C       -7.7896300000   -1.1205030000    1.1375370000
C        7.4918070000    0.5280300000    1.2488080000
C        7.6383490000    0.3337980000   -1.2598550000
C        7.8851760000   -1.6916430000    0.1773460000
H       -0.1056990000    2.9793750000    1.5125890000
H        0.1518280000    2.9787290000   -1.5128380000
H       -2.1733320000    4.3176600000    1.1725400000
H       -1.9143230000    4.3118780000   -0.5826950000
H        2.2380180000    4.2880560000   -1.1719720000
H        1.9793040000    4.2840400000    0.5834130000
H       -1.1425240000    6.4567850000    0.4096400000
H       -0.0846810000    5.5928730000    1.5326920000
H        1.2375380000    6.4406450000   -0.4061380000
H        0.1676930000    5.5930610000   -1.5302680000
H       -3.1552310000    2.6137510000    0.5006370000
H        3.1964410000    2.5690080000   -0.5017300000
H       -5.6533940000   -2.6096210000   -0.1360440000
H        5.6113300000   -2.6964910000    0.1433920000
H       -5.1829700000    1.6517920000    0.2354050000
H        5.2119270000    1.5717250000   -0.2306500000
H       -1.3736130000   -2.7993210000   -1.3711330000
H       -1.8517590000   -4.5151610000   -1.4566060000
H       -2.8429150000   -3.2630390000   -2.2522040000
H       -1.9471460000   -4.8083990000    1.0792480000
H       -1.3591650000   -3.1397820000    1.2927370000
H       -2.8677770000   -3.6581870000    2.0828210000
H        1.7841800000   -4.5411900000    1.4545860000
H        1.3310120000   -2.8185180000    1.3679290000
H        2.7914580000   -3.3032650000    2.2521840000
H        2.8192820000   -3.6995300000   -2.0826790000
H        1.3167920000   -3.1596820000   -1.2954410000
H        1.8807640000   -4.8364470000   -1.0804670000
H       -7.3756930000   -1.9689930000   -1.4818070000
H       -7.2046540000   -0.3592280000   -2.2168000000
H       -8.7427460000   -0.8325970000   -1.4445580000
H       -7.3169460000    1.5926030000    1.0230360000
H       -8.7183990000    1.1761280000    0.0143800000
H       -7.2198120000    1.7416640000   -0.7527090000
H       -8.8886850000   -1.0490510000    1.0974810000
H       -7.4543430000   -0.7243520000    2.1087560000
H       -7.5226820000   -2.1872280000    1.1004820000
H        8.5817810000    0.6745000000    1.3214900000
H        7.0250140000    1.5221630000    1.1792140000
H        7.1444420000    0.0595760000    2.1827450000
H        7.3994220000   -0.2765150000   -2.1446840000
H        7.1743090000    1.3219330000   -1.3989660000
H        8.7303910000    0.4789690000   -1.2266100000
H        7.6949600000   -2.3598770000   -0.6765210000
H        8.9704120000   -1.5127050000    0.2240770000
H        7.5959280000   -2.2201210000    1.0986250000
Ti       0.0015830000    0.0556770000   -0.0022010000
Cl       0.5782830000    0.3510160000    2.2403980000
Cl      -0.5685370000    0.3621940000   -2.2444280000
H       -3.9213430000   -4.0182040000   -0.1558410000
H        3.8635990000   -4.0735030000    0.1580530000
