40
 energy: -63.880901163992 gnorm: 0.000714420177 xtb: 6.7.1 (edcfbbe)
C            4.91587098067231        0.67477116352708       -0.53967278238280
C            3.56587591312630        0.83634882380284       -0.38555406445054
C            2.73298664153683       -0.25451233624377       -0.05565998825851
C            3.32821757870592       -1.54054091898159        0.04039274165144
C            4.72335476055907       -1.67065912802550       -0.10035023190672
C            5.50742548678122       -0.58402721320066       -0.37211100698513
H            5.53349220149472        1.52128005344779       -0.80245319383162
H            3.12345261864416        1.80641710362597       -0.55494323552712
C            1.32222262444020       -0.12299423236782        0.09434409647076
C            2.50581307765051       -2.66968986198988        0.25461567362874
H            5.16028741702160       -2.65464992001493       -0.00530665271507
H            6.57631083161397       -0.69186610454497       -0.48327279193515
C            1.15405174970199       -2.53998126501593        0.31217146896866
C            0.54246345972134       -1.26910540215016        0.20380479392922
H            2.97097492763481       -3.63989416643900        0.35293802796072
H            0.50635632869360       -3.39332365426558        0.43975541016714
C            0.69410429673681        1.19927727104626        0.19812747230223
C            1.25590951710448        2.20219715601232        0.99109597747805
C           -0.51863948222354        1.47773907005415       -0.43782979056667
C            0.66474110752132        3.44511995507977        1.09757035457796
C           -1.11720709021286        2.72462517298956       -0.32825822502250
C           -0.51265894796803        3.71713761660942        0.41913091854584
H            1.11993385812858        4.20362116219895        1.71659353857720
H           -2.04986867328631        2.90291188545403       -0.84116078203010
H           -0.97020133530844        4.69229217101516        0.48864412034036
O           -1.16927662342633        0.50288491854935       -1.18548109577462
N           -0.83309954425906       -1.28429611807536        0.29468810766289
C           -1.60675807757184       -0.49997338467698       -0.32478726360255
C           -3.05560646778603       -0.63313103227539       -0.19361962509033
C           -3.59063366184928       -1.53719700518032        0.72525558467720
C           -3.91341680024965        0.13083586915100       -0.98300191218974
C           -4.95890329709668       -1.66534454712331        0.85230051764356
H           -2.91400879432364       -2.12350989810873        1.32624259489741
C           -5.28234722886366       -0.00545879869238       -0.85229239413112
H           -3.49746379075359        0.81846221887162       -1.70362703893424
C           -5.80765383713700       -0.90020793659765        0.06552974536749
H           -5.37074951809931       -2.36351012012988        1.56603893927351
H           -5.94268069783813        0.58703840753791       -1.46844013041042
H           -6.87798148250940       -1.00346965270158        0.16694283049397
H            2.15444297327338        1.98382867782854        1.54885729113083
