40
 energy: -63.880901163994 gnorm: 0.000714420178 xtb: 6.7.1 (edcfbbe)
C           -4.91587098178638        0.67477116384326       -0.53967277918725
C           -3.56587591380753        0.83634882374152       -0.38555406494201
C           -2.73298664161717       -0.25451233635959       -0.05565999049486
C           -3.32821757879721       -1.54054091895827        0.04039273970242
C           -4.72335476098428       -1.67065912786280       -0.10035023096963
C           -5.50742548796547       -0.58402721272967       -0.37211100239514
H           -5.53349220308484        1.52128005411838       -0.80245318795997
H           -3.12345261987973        1.80641710371994       -0.55494323635145
C           -1.32222262437919       -0.12299423225973        0.09434409344785
C           -2.50581307746206       -2.66968986189139        0.25461567084735
H           -5.16028741722865       -2.65464991981685       -0.00530665116889
H           -6.57631083314314       -0.69186610362706       -0.48327278390216
C           -1.15405174959045       -2.53998126465052        0.31217146702865
C           -0.54246345961842       -1.26910540187036        0.20380479174029
H           -2.97097492723003       -3.63989416644094        0.35293802452742
H           -0.50635632851600       -3.39332365369164        0.43975540937213
C           -0.69410429711710        1.19927727120101        0.19812746954464
C           -1.25590951839107        2.20219715619956        0.99109597400261
C            0.51863948279211        1.47773907006139       -0.43782979168324
C           -0.66474110853660        3.44511995492738        1.09757035223391
C            1.11720709093832        2.72462517288388       -0.32825822523874
C            0.51265894790940        3.71713761639164        0.41913091783652
H           -1.11993386023644        4.20362116233223        1.71659353496898
H            2.04986867462303        2.90291188510659       -0.84116078112105
H            0.97020133403163        4.69229217138949        0.48864411877781
O            1.16927662462178        0.50288491815127       -1.18548109580821
N            0.83309954440562       -1.28429611850718        0.29468810694293
C            1.60675807830912       -0.49997338502314       -0.32478726340061
C            3.05560646865066       -0.63313103241237       -0.19361962414321
C            3.59063366246943       -1.53719700751448        0.72525558363639
C            3.91341680142149        0.13083587112343       -0.98300190887807
C            4.95890329769697       -1.66534454961842        0.85230051681050
H            2.91400879480982       -2.12350990237719        1.32624259173631
C            5.28234722994859       -0.00545879693103       -0.85229239061408
H            3.49746379208992        0.81846222315167       -1.70362703348028
C            5.80765383801970       -0.90020793712485        0.06552974673623
H            5.37074951845855       -2.36351012434999        1.56603893677532
H            5.94268069914349        0.58703841154863       -1.46844012451131
H            6.87798148341699       -1.00346965345095        0.16694283178271
H           -2.15444297438521        1.98382867757748        1.54885728779942
