!B3LYP 6-311++G(2d,2p) ExtremeSCF NMR NoRI def2/JK

%CPCM
  SMD        True        # turn on SMD
  SMDsolvent "water"     # specify the name of solvent
  SurfaceType gepol_ses
End

%EPRNMR
  Tol 1e-14
End

* xyz 0 1
  O   0.00000000000000     -0.00000000000000      0.10672233201899
  H   0.00000000000000      0.75076075307912     -0.46391116600949
  H   0.00000000000000     -0.75076075307913     -0.46391116600949
*
